[Format]      =  4.0
[Frequency]   =  0
[Precision]   =  1e-008
[MinAngle]    =  30
[DoSmartMesh] =  1
[Depth]       =  0
[LengthUnits] =  millimeters
[ProblemType] =  planar
[Coordinates] =  cartesian
[ACSolver]    =  0
[PrevType]    =  0
[PrevSoln]    =  ""
[Comment]     =  "Add comments here."
[PointProps]   = 0
[BdryProps]   = 1
  <BeginBdry>
    <BdryName> = "A=0"
    <BdryType> = 0
    <A_0> = 0
    <A_1> = 0
    <A_2> = 0
    <Phi> = 0
    <c0> = 0
    <c0i> = 0
    <c1> = 0
    <c1i> = 0
    <Mu_ssd> = 0
    <Sigma_ssd> = 0
    <innerangle> = 0
    <outerangle> = 0
  <EndBdry>
[BlockProps]  = 8
  <BeginBlock>
    <BlockName> = "Air"
    <Mu_x> = 1
    <Mu_y> = 1
    <H_c> = 0
    <H_cAngle> = 0
    <J_re> = 0
    <J_im> = 0
    <Sigma> = 0
    <d_lam> = 0
    <Phi_h> = 0
    <Phi_hx> = 0
    <Phi_hy> = 0
    <LamType> = 0
    <LamFill> = 1
    <NStrands> = 0
    <WireD> = 1
    <BHPoints> = 0
  <EndBlock>
  <BeginBlock>
    <BlockName> = "u1"
    <Mu_x> = 2.6498996896116669
    <Mu_y> = 2.6498996896116669
    <H_c> = 0
    <H_cAngle> = 0
    <J_re> = 0
    <J_im> = 0
    <Sigma> = 0
    <d_lam> = 0
    <Phi_h> = 0
    <Phi_hx> = 0
    <Phi_hy> = 0
    <LamType> = 0
    <LamFill> = 1
    <NStrands> = 0
    <WireD> = 0
    <BHPoints> = 0
  <EndBlock>
  <BeginBlock>
    <BlockName> = "u2"
    <Mu_x> = 0.12953316809300527
    <Mu_y> = 0.12953316809300527
    <H_c> = 0
    <H_cAngle> = 0
    <J_re> = 0
    <J_im> = 0
    <Sigma> = 0
    <d_lam> = 0
    <Phi_h> = 0
    <Phi_hx> = 0
    <Phi_hy> = 0
    <LamType> = 0
    <LamFill> = 1
    <NStrands> = 0
    <WireD> = 0
    <BHPoints> = 0
  <EndBlock>
  <BeginBlock>
    <BlockName> = "u3"
    <Mu_x> = 14.398967120915913
    <Mu_y> = 14.398967120915913
    <H_c> = 0
    <H_cAngle> = 0
    <J_re> = 0
    <J_im> = 0
    <Sigma> = 0
    <d_lam> = 0
    <Phi_h> = 0
    <Phi_hx> = 0
    <Phi_hy> = 0
    <LamType> = 0
    <LamFill> = 1
    <NStrands> = 0
    <WireD> = 0
    <BHPoints> = 0
  <EndBlock>
  <BeginBlock>
    <BlockName> = "u4"
    <Mu_x> = 0.042882574356338271
    <Mu_y> = 0.042882574356338271
    <H_c> = 0
    <H_cAngle> = 0
    <J_re> = 0
    <J_im> = 0
    <Sigma> = 0
    <d_lam> = 0
    <Phi_h> = 0
    <Phi_hx> = 0
    <Phi_hy> = 0
    <LamType> = 0
    <LamFill> = 1
    <NStrands> = 0
    <WireD> = 0
    <BHPoints> = 0
  <EndBlock>
  <BeginBlock>
    <BlockName> = "u5"
    <Mu_x> = 37.197476986533054
    <Mu_y> = 37.197476986533054
    <H_c> = 0
    <H_cAngle> = 0
    <J_re> = 0
    <J_im> = 0
    <Sigma> = 0
    <d_lam> = 0
    <Phi_h> = 0
    <Phi_hx> = 0
    <Phi_hy> = 0
    <LamType> = 0
    <LamFill> = 1
    <NStrands> = 0
    <WireD> = 0
    <BHPoints> = 0
  <EndBlock>
  <BeginBlock>
    <BlockName> = "u6"
    <Mu_x> = 0.015664246064106369
    <Mu_y> = 0.015664246064106369
    <H_c> = 0
    <H_cAngle> = 0
    <J_re> = 0
    <J_im> = 0
    <Sigma> = 0
    <d_lam> = 0
    <Phi_h> = 0
    <Phi_hx> = 0
    <Phi_hy> = 0
    <LamType> = 0
    <LamFill> = 1
    <NStrands> = 0
    <WireD> = 0
    <BHPoints> = 0
  <EndBlock>
  <BeginBlock>
    <BlockName> = "u7"
    <Mu_x> = 142.03015659052124
    <Mu_y> = 142.03015659052124
    <H_c> = 0
    <H_cAngle> = 0
    <J_re> = 0
    <J_im> = 0
    <Sigma> = 0
    <d_lam> = 0
    <Phi_h> = 0
    <Phi_hx> = 0
    <Phi_hy> = 0
    <LamType> = 0
    <LamFill> = 1
    <NStrands> = 0
    <WireD> = 0
    <BHPoints> = 0
  <EndBlock>
[CircuitProps]  = 0
[NumPoints] = 602
10	0	0	0
-10	0	0	0
40	0	0	0
-40	0	0	0
50	0	0	0
36.541818305704034	-16.269465723032006	0	0
36.541818305704034	16.269465723032006	0	0
45.67727288213004	-20.336832153790006	0	0
45.67727288213004	20.336832153790006	0	0
25.000000000000007	43.301270189221931	0	0
32.360679774997898	23.511410091698927	0	0
4.1811385307061384	39.780875814730933	0	0
40.450849718747371	29.389262614623657	0	0
5.2264231633826732	49.726094768413667	0	0
-24.999999999999989	43.301270189221938	0	0
-4.1811385307061331	39.780875814730933	0	0
-32.360679774997891	23.511410091698931	0	0
-5.226423163382667	49.726094768413667	0	0
-40.450849718747364	29.389262614623661	0	0
-50	6.1232339957367661e-015	0	0
-36.541818305704027	16.269465723032017	0	0
-36.541818305704041	-16.269465723031992	0	0
-45.67727288213004	20.33683215379002	0	0
-45.677272882130055	-20.336832153789992	0	0
-25.000000000000021	-43.301270189221917	0	0
-32.360679774997905	-23.51141009169892	0	0
-4.1811385307061339	-39.780875814730933	0	0
-40.450849718747378	-29.38926261462365	0	0
-5.2264231633826679	-49.726094768413667	0	0
25.000000000000007	-43.301270189221931	0	0
4.1811385307061197	-39.780875814730933	0	0
32.360679774997891	-23.511410091698934	0	0
5.2264231633826492	-49.726094768413667	0	0
40.450849718747364	-29.389262614623668	0	0
55	0	0	0
59.924217396361051	-3.0146590907861732	0	0
59.924217396361051	3.0146590907861732	0	0
54.930532613330961	-2.7634374998873255	0	0
54.930532613330961	2.7634374998873255	0	0
59.991666087882571	1	0	0
59.991666087882571	-1	0	0
79.993749755840298	-1	0	0
79.993749755840298	1	0	0
54.566308572296286	6.8933278460367342	0	0
59.829534015636838	4.519608331675963	0	0
59.073860071752321	10.501383538516562	0	0
54.84373951433377	4.1429743040362998	0	0
54.151038399106291	9.6262682436401814	0	0
59.393280648573203	8.5110641990188167	0	0
59.643947115701813	6.526834796389859	0	0
79.488308379604888	9.0337606205187591	0	0
79.237641912476278	11.017990023147714	0	0
53.272073862074706	13.677943794067014	0	0
58.791303143054812	11.982598830864422	0	0
57.291872684798577	17.822494894622096	0	0
53.892027881133579	10.984048928292387	0	0
52.517549961065363	16.33728698673692	0	0
57.858227693609749	15.887903831355795	0	0
58.355607467939457	13.950737509098531	0	0
77.729288896209312	18.925053439544921	0	0
77.23190912187961	20.862219761802187	0	0
51.137706723853832	20.246850397657287	0	0
56.825898299684653	19.256616588432571	0	0
54.606358241099741	24.862534859597048	0	0
52.090406774710935	17.651898539396523	0	0
50.055828387674758	22.790656954630627	0	0
55.410715925088162	23.014181729298592	0	0
56.146965030457523	21.154628757522083	0	0
74.744432093694044	28.517886860550526	0	0
74.008182988324677	30.377439832327031	0	0
48.196867402412494	26.496452075594341	0	0
53.964315093982258	26.226945999055975	0	0
51.059668907681512	31.510477797677744	0	0
49.467288836150402	24.041367165801312	0	0
46.804696498708054	28.884604647871264	0	0
52.089344065670701	29.777512233364568	0	0
53.05285141387413	28.024898873276843	0	0
70.58081094690175	37.660976170005391	0	0
69.617303598698314	39.41358953009312	0	0
44.495934690622107	32.328188876086024	0	0
50.251682402528509	32.783660804056147	0	0
46.707738094021408	37.661481677442026	0	0
46.0640422023178	30.051689070384803	0	0
42.815426586186291	34.523024870988529	0	0
47.946492133671747	36.071233581286812	0	0
49.122062638256693	34.453199592536912	0	0
65.304088248544076	46.210129387682606	0	0
64.128517743959137	47.828163376432499	0	0
40.093274508177636	37.650090826077871	0	0
45.746550660686871	38.823357694166653	0	0
41.619198348768293	43.218541493274415	0	0
41.934338105629635	35.588077886319432	0	0
38.150931819704269	39.616996368834883	0	0
43.047495378878715	41.796090027721682	0	0
44.416589590736081	40.338152772878864	0	0
58.997481067735464	54.030521260322814	0	0
57.628386855878091	55.488458515165632	0	0
35.058319436177939	42.378228352668401	0	0
40.519968487261465	44.250787041490426	0	0
35.874298983451133	48.094019092252594	0	0
37.143304446656344	40.563221454699558	0	0
32.884774068163544	44.08618416789821	0	0
37.469613906633491	46.861797166645438	0	0
39.010640392185067	45.586949187148058	0	0
51.760448367101787	60.998819536418821	0	0
50.219421881550218	62.273667515916188	0	0
29.470473723844812	46.438035902610828	0	0
34.654362205336056	48.980355043031039	0	0
29.563640492897495	52.21102528017154	0	0
31.766498688224718	44.898658789445115	0	0
27.100003785156037	47.860106506823911	0	0
31.300814239818258	51.188465770370485	0	0
32.989470090822309	50.116812180412481	0	0
43.707122475525814	67.005129989496965	0	0
42.018466624521778	68.076783579454968	0	0
23.417861036079007	49.765487885631067	0	0
28.242235929919964	52.937473586097191	0	0
22.786745731308081	55.504632410067472	0	0
25.888716269093301	48.526017453922421	0	0
20.887850253699074	50.879246375895185	0	0
24.638382034241022	54.707861690389521	0	0
26.448036139173059	53.856303107259379	0	0
34.964509153141414	71.954729515716281	0	0
33.154855048209377	72.806288098846409	0	0
16.995934690622111	52.308108396233443	0	0
21.384712722795044	56.059736547396724	0	0
15.650490377393819	57.922898329996436	0	0
19.60265332922879	51.388091835113663	0	0
14.346282845944335	53.095990135830064	0	0
17.587387825727792	57.36448195065865	0	0
19.489500858318081	56.746447961908757	0	0
25.6704846346266	75.769559973800824	0	0
23.768371602036318	76.38759396255071	0	0
10.305972302214849	54.025798790077879	0	0
14.189939821423472	58.297903974880441	0	0
8.2674174410782921	59.427685541799072	0	0
13.007444836304849	53.439745310307067	0	0
7.5784659876551004	54.475378413315816	0	0
10.259030005006583	59.116430062685403	0	0
12.22360450646396	58.741667433513953	0	0
15.971621238619528	78.389459208557355	0	0
14.00704673716216	78.764221837728797	0	0
3.453478574112244	54.891470063554934	0	0
6.7713830924088825	59.6166786312005	0	0
0.7539623930011532	59.995262652228966	0	0
6.2071011680414756	54.648622078600461	0	0
0.69113219358439049	54.995657431209885	0	0
2.7688811526589689	59.936076758180043	0	0
4.7649346095155112	59.81049571912142	0	0
6.0208758346953681	79.773109844001823	0	0
4.0248223778388148	79.898690883060453	0	0
-3.4534785741122249	54.891470063554934	0	0
-0.75396239300115919	59.995262652228966	0	0
-6.7713830924088887	59.6166786312005	0	0
-0.69113219358439593	54.995657431209885	0	0
-6.2071011680414809	54.648622078600461	0	0
-4.7649346095154899	59.81049571912142	0	0
-2.7688811526589485	59.936076758180043	0	0
-4.024822377838805	79.898690883060453	0	0
-6.0208758346953584	79.773109844001823	0	0
-10.30597230221484	54.025798790077879	0	0
-8.2674174410782832	59.427685541799072	0	0
-14.189939821423465	58.297903974880441	0	0
-7.5784659876550924	54.475378413315816	0	0
-13.007444836304844	53.439745310307067	0	0
-12.223604506463941	58.74166743351396	0	0
-10.259030005006577	59.11643006268541	0	0
-14.007046737162147	78.764221837728797	0	0
-15.971621238619536	78.389459208557355	0	0
-16.995934690622104	52.30810839623345	0	0
-15.650490377393826	57.922898329996436	0	0
-21.384712722795037	56.059736547396724	0	0
-14.346282845944341	53.095990135830064	0	0
-19.602653329228787	51.38809183511367	0	0
-19.489500858318074	56.746447961908757	0	0
-17.58738782572777	57.36448195065865	0	0
-23.768371602036289	76.38759396255071	0	0
-25.67048463462659	75.769559973800824	0	0
-23.417861036079	49.765487885631067	0	0
-22.786745731308073	55.504632410067479	0	0
-28.242235929919957	52.937473586097198	0	0
-20.887850253699067	50.879246375895193	0	0
-25.888716269093294	48.526017453922428	0	0
-26.448036139173041	53.856303107259379	0	0
-24.638382034241015	54.707861690389528	0	0
-33.15485504820937	72.806288098846423	0	0
-34.964509153141385	71.954729515716281	0	0
-29.470473723844805	46.438035902610835	0	0
-29.563640492897488	52.21102528017154	0	0
-34.654362205336042	48.980355043031039	0	0
-27.10000378515603	47.860106506823911	0	0
-31.766498688224708	44.898658789445122	0	0
-32.989470090822294	50.116812180412488	0	0
-31.300814239818273	51.18846577037047	0	0
-42.0184666245218	68.076783579454954	0	0
-43.707122475525814	67.005129989496965	0	0
-35.058319436177918	42.378228352668422	0	0
-35.874298983451133	48.094019092252594	0	0
-40.519968487261465	44.250787041490433	0	0
-32.884774068163544	44.08618416789821	0	0
-37.143304446656344	40.563221454699566	0	0
-39.010640392185074	45.586949187148058	0	0
-37.469613906633462	46.861797166645459	0	0
-50.219421881550204	62.273667515916202	0	0
-51.760448367101759	60.998819536418836	0	0
-40.093274508177643	37.650090826077864	0	0
-41.619198348768307	43.218541493274401	0	0
-45.746550660686879	38.823357694166653	0	0
-38.150931819704283	39.616996368834869	0	0
-41.934338105629642	35.588077886319432	0	0
-44.416589590736095	40.33815277287885	0	0
-43.047495378878715	41.796090027721675	0	0
-57.628386855878091	55.488458515165632	0	0
-58.997481067735478	54.030521260322793	0	0
-44.495934690622107	32.328188876086031	0	0
-46.707738094021401	37.661481677442033	0	0
-50.251682402528502	32.783660804056154	0	0
-42.815426586186284	34.523024870988529	0	0
-46.064042202317793	30.051689070384807	0	0
-49.122062638256693	34.453199592536912	0	0
-47.94649213367174	36.071233581286819	0	0
-64.128517743959122	47.828163376432506	0	0
-65.304088248544076	46.210129387682606	0	0
-48.196867402412487	26.496452075594359	0	0
-51.059668907681505	31.510477797677762	0	0
-53.96431509398225	26.226945999055996	0	0
-46.804696498708047	28.884604647871281	0	0
-49.467288836150395	24.041367165801329	0	0
-53.052851413874123	28.024898873276854	0	0
-52.089344065670687	29.777512233364593	0	0
-69.6173035986983	39.413589530093148	0	0
-70.58081094690175	37.660976170005412	0	0
-51.137706723853832	20.246850397657276	0	0
-54.606358241099741	24.862534859597059	0	0
-56.825898299684653	19.256616588432582	0	0
-50.055828387674758	22.790656954630638	0	0
-52.090406774710935	17.651898539396534	0	0
-56.14696503045753	21.154628757522065	0	0
-55.410715925088155	23.014181729298603	0	0
-74.008182988324691	30.377439832327013	0	0
-74.74443209369403	28.517886860550536	0	0
-53.272073862074706	13.677943794067016	0	0
-57.291872684798577	17.822494894622096	0	0
-58.791303143054812	11.982598830864424	0	0
-52.517549961065363	16.33728698673692	0	0
-53.892027881133579	10.984048928292388	0	0
-58.355607467939457	13.950737509098527	0	0
-57.858227693609734	15.887903831355828	0	0
-77.231909121879596	20.862219761802226	0	0
-77.729288896209312	18.925053439544921	0	0
-54.566308572296279	6.8933278460367493	0	0
-59.073860071752321	10.501383538516579	0	0
-59.829534015636838	4.5196083316759559	0	0
-54.151038399106291	9.6262682436401974	0	0
-54.84373951433377	4.1429743040362927	0	0
-59.643947115701813	6.5268347963898439	0	0
-59.393280648573203	8.511064199018838	0	0
-79.237641912476292	11.017990023147675	0	0
-79.488308379604888	9.0337606205187431	0	0
-55	6.7355573953104426e-015	0	0
-59.924217396361051	3.0146590907861794	0	0
-59.924217396361051	-3.0146590907861652	0	0
-54.930532613330961	2.7634374998873312	0	0
-54.930532613330961	-2.7634374998873179	0	0
-59.991666087882571	-0.99999999999999878	0	0
-59.991666087882571	1.0000000000000135	0	0
-79.993749755840298	1.0000000000000151	0	0
-79.993749755840298	-0.99999999999995992	0	0
-54.566308572296286	-6.8933278460367111	0	0
-59.829534015636838	-4.5196083316759674	0	0
-59.073860071752328	-10.501383538516539	0	0
-54.84373951433377	-4.1429743040363034	0	0
-54.151038399106298	-9.6262682436401601	0	0
-59.39328064857321	-8.5110641990187972	0	0
-59.643947115701813	-6.5268347963898563	0	0
-79.488308379604888	-9.0337606205187591	0	0
-79.237641912476292	-11.017990023147689	0	0
-53.272073862074706	-13.677943794067026	0	0
-58.791303143054812	-11.982598830864434	0	0
-57.291872684798577	-17.822494894622103	0	0
-53.892027881133579	-10.984048928292399	0	0
-52.517549961065363	-16.337286986736931	0	0
-57.858227693609741	-15.887903831355814	0	0
-58.355607467939457	-13.950737509098513	0	0
-77.729288896209312	-18.9250534395449	0	0
-77.23190912187961	-20.862219761802173	0	0
-51.137706723853839	-20.246850397657262	0	0
-56.82589829968466	-19.256616588432568	0	0
-54.606358241099755	-24.862534859597019	0	0
-52.090406774710942	-17.651898539396523	0	0
-50.055828387674772	-22.790656954630599	0	0
-55.410715925088169	-23.014181729298567	0	0
-56.14696503045753	-21.154628757522051	0	0
-74.744432093694044	-28.517886860550519	0	0
-74.008182988324705	-30.377439832326996	0	0
-48.196867402412494	-26.496452075594345	0	0
-53.964315093982258	-26.226945999055982	0	0
-51.059668907681512	-31.510477797677751	0	0
-49.467288836150402	-24.041367165801319	0	0
-46.804696498708054	-28.884604647871271	0	0
-52.08934406567068	-29.777512233364604	0	0
-53.05285141387413	-28.024898873276843	0	0
-70.58081094690175	-37.660976170005391	0	0
-69.617303598698328	-39.413589530093098	0	0
-44.495934690622114	-32.328188876086017	0	0
-50.251682402528509	-32.78366080405614	0	0
-46.707738094021416	-37.661481677442019	0	0
-46.0640422023178	-30.051689070384796	0	0
-42.815426586186298	-34.523024870988522	0	0
-47.946492133671747	-36.071233581286812	0	0
-49.122062638256715	-34.453199592536883	0	0
-65.304088248544062	-46.210129387682613	0	0
-64.128517743959137	-47.828163376432499	0	0
-40.09327450817765	-37.650090826077864	0	0
-45.746550660686886	-38.823357694166639	0	0
-41.619198348768293	-43.218541493274415	0	0
-41.934338105629649	-35.588077886319418	0	0
-38.150931819704269	-39.616996368834883	0	0
-43.047495378878708	-41.796090027721689	0	0
-44.416589590736109	-40.338152772878836	0	0
-58.997481067735492	-54.030521260322786	0	0
-57.628386855878134	-55.48845851516559	0	0
-35.058319436177925	-42.378228352668415	0	0
-40.519968487261472	-44.250787041490426	0	0
-35.874298983451141	-48.094019092252587	0	0
-37.143304446656352	-40.563221454699551	0	0
-32.884774068163544	-44.086184167898203	0	0
-37.469613906633469	-46.861797166645452	0	0
-39.010640392185103	-45.586949187148029	0	0
-51.760448367101773	-60.998819536418829	0	0
-50.21942188155019	-62.273667515916209	0	0
-29.47047372384484	-46.438035902610814	0	0
-34.654362205336056	-48.980355043031039	0	0
-29.563640492897502	-52.211025280171533	0	0
-31.766498688224718	-44.898658789445115	0	0
-27.100003785156041	-47.860106506823904	0	0
-31.300814239818241	-51.188465770370492	0	0
-32.989470090822323	-50.116812180412467	0	0
-43.707122475525857	-67.005129989496936	0	0
-42.018466624521821	-68.07678357945494	0	0
-23.41786103607901	-49.765487885631067	0	0
-28.242235929919946	-52.937473586097205	0	0
-22.786745731308063	-55.504632410067479	0	0
-25.888716269093287	-48.526017453922435	0	0
-20.887850253699057	-50.879246375895193	0	0
-24.63838203424098	-54.707861690389535	0	0
-26.44803613917308	-53.856303107259365	0	0
-34.964509153141435	-71.954729515716267	0	0
-33.154855048209328	-72.806288098846437	0	0
-16.995934690622114	-52.308108396233443	0	0
-21.384712722795026	-56.059736547396724	0	0
-15.650490377393853	-57.922898329996428	0	0
-19.602653329228772	-51.38809183511367	0	0
-14.346282845944366	-53.095990135830057	0	0
-17.587387825727784	-57.36448195065865	0	0
-19.489500858318102	-56.74644796190875	0	0
-25.670484634626625	-75.76955997380081	0	0
-23.768371602036311	-76.38759396255071	0	0
-10.305972302214903	-54.025798790077864	0	0
-14.189939821423506	-58.297903974880434	0	0
-8.2674174410783117	-59.427685541799072	0	0
-13.007444836304881	-53.43974531030706	0	0
-7.578465987655119	-54.475378413315816	0	0
-10.259030005006579	-59.11643006268541	0	0
-12.223604506464019	-58.741667433513939	0	0
-15.971621238619607	-78.389459208557341	0	0
-14.007046737162149	-78.764221837728797	0	0
-3.4534785741122751	-54.891470063554934	0	0
-6.7713830924089162	-59.6166786312005	0	0
-0.75396239300117385	-59.995262652228966	0	0
-6.2071011680415058	-54.648622078600461	0	0
-0.69113219358440936	-54.995657431209885	0	0
-2.7688811526590031	-59.936076758180036	0	0
-4.7649346095155583	-59.810495719121413	0	0
-6.0208758346955014	-79.773109844001823	0	0
-4.0248223778388779	-79.898690883060453	0	0
3.4534785741122547	-54.891470063554934	0	0
0.75396239300115186	-59.995262652228966	0	0
6.771383092408894	-59.6166786312005	0	0
0.69113219358438926	-54.995657431209885	0	0
6.2071011680414863	-54.648622078600461	0	0
4.764934609515536	-59.810495719121413	0	0
2.7688811526589809	-59.936076758180043	0	0
4.0248223778387775	-79.898690883060453	0	0
6.0208758346954019	-79.773109844001823	0	0
10.305972302214835	-54.025798790077879	0	0
8.2674174410782904	-59.427685541799072	0	0
14.189939821423485	-58.297903974880441	0	0
7.5784659876550986	-54.475378413315816	0	0
13.00744483630486	-53.439745310307067	0	0
12.223604506463946	-58.741667433513953	0	0
10.259030005006608	-59.116430062685403	0	0
14.007046737162121	-78.764221837728812	0	0
15.971621238619578	-78.389459208557341	0	0
16.995934690622096	-52.30810839623345	0	0
15.65049037739378	-57.922898329996443	0	0
21.384712722795054	-56.059736547396724	0	0
14.346282845944298	-53.095990135830071	0	0
19.602653329228801	-51.388091835113663	0	0
19.489500858318081	-56.746447961908757	0	0
17.587387825727763	-57.364481950658657	0	0
23.768371602036282	-76.38759396255071	0	0
25.670484634626597	-75.769559973800824	0	0
23.417861036078992	-49.765487885631075	0	0
22.786745731308041	-55.504632410067494	0	0
28.242235929919929	-52.937473586097212	0	0
20.887850253699035	-50.879246375895207	0	0
25.888716269093266	-48.526017453922442	0	0
26.448036139173013	-53.856303107259393	0	0
24.638382034241008	-54.707861690389528	0	0
33.154855048209299	-72.806288098846451	0	0
34.964509153141407	-71.954729515716281	0	0
29.47047372384478	-46.438035902610856	0	0
29.563640492897481	-52.211025280171548	0	0
34.654362205336035	-48.980355043031047	0	0
27.100003785156023	-47.860106506823918	0	0
31.766498688224701	-44.898658789445129	0	0
32.989470090822266	-50.116812180412509	0	0
31.300814239818219	-51.188465770370506	0	0
42.018466624521729	-68.076783579454997	0	0
43.707122475525829	-67.005129989496965	0	0
35.058319436177946	-42.378228352668394	0	0
35.874298983451126	-48.094019092252594	0	0
40.519968487261465	-44.25078704149044	0	0
32.884774068163537	-44.086184167898217	0	0
37.143304446656337	-40.563221454699573	0	0
39.010640392185088	-45.586949187148043	0	0
37.469613906633498	-46.861797166645431	0	0
50.219421881550225	-62.273667515916181	0	0
51.760448367101866	-60.998819536418758	0	0
40.09327450817765	-37.650090826077857	0	0
41.6191983487683	-43.218541493274408	0	0
45.746550660686871	-38.82335769416666	0	0
38.150931819704276	-39.616996368834876	0	0
41.934338105629635	-35.588077886319439	0	0
44.416589590736109	-40.338152772878836	0	0
43.047495378878693	-41.796090027721704	0	0
57.628386855878063	-55.488458515165661	0	0
58.997481067735499	-54.030521260322779	0	0
44.495934690622107	-32.328188876086031	0	0
46.707738094021416	-37.661481677442012	0	0
50.251682402528481	-32.783660804056183	0	0
42.815426586186298	-34.523024870988515	0	0
46.064042202317772	-30.051689070384832	0	0
49.122062638256686	-34.453199592536919	0	0
47.94649213367174	-36.071233581286826	0	0
64.128517743959122	-47.828163376432514	0	0
65.304088248544105	-46.210129387682557	0	0
48.196867402412494	-26.496452075594341	0	0
51.059668907681498	-31.510477797677769	0	0
53.96431509398225	-26.226945999056003	0	0
46.80469649870804	-28.884604647871289	0	0
49.467288836150395	-24.041367165801336	0	0
53.052851413874137	-28.02489887327684	0	0
52.089344065670673	-29.777512233364622	0	0
69.617303598698285	-39.413589530093191	0	0
70.58081094690175	-37.660976170005391	0	0
51.137706723853832	-20.246850397657283	0	0
54.606358241099734	-24.862534859597066	0	0
56.825898299684646	-19.256616588432589	0	0
50.055828387674758	-22.790656954630641	0	0
52.090406774710928	-17.651898539396541	0	0
56.146965030457523	-21.154628757522072	0	0
55.410715925088148	-23.014181729298635	0	0
74.008182988324648	-30.377439832327088	0	0
74.744432093694044	-28.517886860550512	0	0
53.272073862074706	-13.677943794067044	0	0
57.291872684798577	-17.822494894622103	0	0
58.791303143054812	-11.982598830864431	0	0
52.517549961065363	-16.337286986736927	0	0
53.892027881133579	-10.984048928292395	0	0
58.355607467939464	-13.950737509098508	0	0
57.858227693609734	-15.887903831355834	0	0
77.231909121879596	-20.862219761802233	0	0
77.72928889620934	-18.925053439544826	0	0
54.566308572296279	-6.8933278460367555	0	0
59.073860071752328	-10.50138353851656	0	0
59.829534015636838	-4.519608331675963	0	0
54.151038399106298	-9.6262682436401796	0	0
54.84373951433377	-4.1429743040362998	0	0
59.643947115701813	-6.5268347963898776	0	0
59.393280648573203	-8.5110641990188469	0	0
79.237641912476278	-11.017990023147755	0	0
79.488308379604888	-9.0337606205187875	0	0
59.881603705696293	3.7674311717588025	0	0
79.842138274261728	5.0232415623450697	0	0
58.937235043721323	11.242878875143475	0	0
78.582980058295092	14.990505166857968	0	0
57.063390977709211	18.541019662496844	0	0
76.084521303612277	24.721359549995793	0	0
54.289623147961173	25.546757493904355	0	0
72.386164197281573	34.062343325205809	0	0
50.659675530120914	32.149607698739793	0	0
67.54623404016121	42.866143598319724	0	0
46.230794566547345	38.245439384921383	0	0
61.64105942206313	50.99391917989518	0	0
41.072826355721325	43.738117645284689	0	0
54.763768474295098	58.317490193712914	0	0
35.267115137548387	48.541019662496851	0	0
47.022820183397855	64.721359549995796	0	0
28.90522044610292	52.578400802631812	0	0
38.540293928137224	70.104534403509092	0	0
22.087473161080673	55.78658915329509	0	0
29.44996421477423	74.382118871060115	0	0
14.921393229891297	58.114989667717865	0	0
19.895190973188399	77.486652890290486	0	0
7.5199940138582555	59.526882078868674	0	0
10.026658685144341	79.369176105158232	0	0
3.67394039744206e-015	60	0	0
4.898587196589413e-015	80	0	0
-7.5199940138582626	59.526882078868667	0	0
-10.02665868514435	79.369176105158218	0	0
-14.92139322989129	58.114989667717865	0	0
-19.895190973188388	77.486652890290486	0	0
-22.087473161080666	55.78658915329509	0	0
-29.449964214774219	74.382118871060115	0	0
-28.905220446102902	52.578400802631819	0	0
-38.540293928137203	70.104534403509092	0	0
-35.26711513754838	48.541019662496851	0	0
-47.02282018339784	64.721359549995796	0	0
-41.072826355721304	43.738117645284703	0	0
-54.76376847429507	58.317490193712942	0	0
-46.230794566547345	38.24543938492139	0	0
-61.64105942206313	50.993919179895187	0	0
-50.659675530120907	32.1496076987398	0	0
-67.54623404016121	42.866143598319731	0	0
-54.289623147961173	25.546757493904348	0	0
-72.386164197281573	34.062343325205802	0	0
-57.063390977709211	18.541019662496851	0	0
-76.084521303612277	24.7213595499958	0	0
-58.937235043721323	11.242878875143475	0	0
-78.582980058295092	14.990505166857966	0	0
-59.881603705696293	3.7674311717588149	0	0
-79.842138274261728	5.0232415623450866	0	0
-59.881603705696293	-3.7674311717588007	0	0
-79.842138274261728	-5.0232415623450679	0	0
-58.937235043721316	-11.242878875143486	0	0
-78.582980058295092	-14.990505166857982	0	0
-57.063390977709211	-18.541019662496865	0	0
-76.084521303612277	-24.721359549995817	0	0
-54.28962314796118	-25.546757493904337	0	0
-72.386164197281573	-34.062343325205781	0	0
-50.659675530120914	-32.149607698739786	0	0
-67.54623404016121	-42.866143598319717	0	0
-46.230794566547353	-38.245439384921376	0	0
-61.641059422063137	-50.993919179895173	0	0
-41.07282635572134	-43.738117645284682	0	0
-54.763768474295119	-58.317490193712906	0	0
-35.267115137548394	-48.541019662496844	0	0
-47.022820183397862	-64.721359549995782	0	0
-28.905220446102962	-52.578400802631791	0	0
-38.540293928137281	-70.104534403509049	0	0
-22.08747316108067	-55.78658915329509	0	0
-29.449964214774226	-74.382118871060115	0	0
-14.921393229891319	-58.114989667717857	0	0
-19.895190973188424	-77.486652890290472	0	0
-7.5199940138582235	-59.526882078868674	0	0
-10.026658685144298	-79.369176105158232	0	0
-1.1021821192326178e-014	-60	0	0
-1.4695761589768237e-014	-80	0	0
7.5199940138582537	-59.526882078868674	0	0
10.026658685144339	-79.369176105158232	0	0
14.921393229891244	-58.114989667717879	0	0
19.895190973188328	-77.4866528902905	0	0
22.087473161080695	-55.786589153295076	0	0
29.449964214774262	-74.382118871060101	0	0
28.905220446102895	-52.578400802631826	0	0
38.540293928137196	-70.104534403509106	0	0
35.267115137548373	-48.541019662496851	0	0
47.022820183397833	-64.72135954999581	0	0
41.072826355721276	-43.738117645284724	0	0
54.763768474295034	-58.31749019371297	0	0
46.230794566547324	-38.245439384921418	0	0
61.641059422063094	-50.993919179895222	0	0
50.659675530120886	-32.149607698739828	0	0
67.546234040161181	-42.866143598319766	0	0
54.289623147961159	-25.54675749390438	0	0
72.386164197281545	-34.062343325205838	0	0
57.063390977709211	-18.541019662496858	0	0
76.084521303612277	-24.72135954999581	0	0
58.937235043721323	-11.24287887514348	0	0
78.582980058295092	-14.990505166857975	0	0
59.881603705696293	-3.7674311717587958	0	0
79.842138274261728	-5.0232415623450608	0	0
100	0	0	0
-100	0	0	0
0	212.132034355965	0	0
0	-212.132034355965	0	0
0	-215.16249198962163	0	0
0	215.16249198962163	0	0
0	-218.19294962327825	0	0
0	218.19294962327825	0	0
0	-221.22340725693493	0	0
0	221.22340725693493	0	0
0	-224.25386489059159	0	0
0	224.25386489059159	0	0
0	-227.28432252424821	0	0
0	227.28432252424821	0	0
0	-230.31478015790483	0	0
0	230.31478015790483	0	0
0	-233.34523779156152	0	0
0	233.34523779156152	0	0
[NumSegments] = 262
5	7	-1	0	0	0
6	8	-1	0	0	0
10	12	-1	0	0	0
11	13	-1	0	0	0
15	17	-1	0	0	0
16	18	-1	0	0	0
20	22	-1	0	0	0
21	23	-1	0	0	0
25	27	-1	0	0	0
26	28	-1	0	0	0
30	32	-1	0	0	0
31	33	-1	0	0	0
35	37	-1	0	0	0
36	38	-1	0	0	0
40	41	-1	0	0	0
39	42	-1	0	0	0
44	46	-1	0	0	0
45	47	-1	0	0	0
49	50	-1	0	0	0
48	51	-1	0	0	0
53	55	-1	0	0	0
54	56	-1	0	0	0
58	59	-1	0	0	0
57	60	-1	0	0	0
62	64	-1	0	0	0
63	65	-1	0	0	0
67	68	-1	0	0	0
66	69	-1	0	0	0
71	73	-1	0	0	0
72	74	-1	0	0	0
76	77	-1	0	0	0
75	78	-1	0	0	0
80	82	-1	0	0	0
81	83	-1	0	0	0
85	86	-1	0	0	0
84	87	-1	0	0	0
89	91	-1	0	0	0
90	92	-1	0	0	0
94	95	-1	0	0	0
93	96	-1	0	0	0
98	100	-1	0	0	0
99	101	-1	0	0	0
103	104	-1	0	0	0
102	105	-1	0	0	0
107	109	-1	0	0	0
108	110	-1	0	0	0
112	113	-1	0	0	0
111	114	-1	0	0	0
116	118	-1	0	0	0
117	119	-1	0	0	0
121	122	-1	0	0	0
120	123	-1	0	0	0
125	127	-1	0	0	0
126	128	-1	0	0	0
130	131	-1	0	0	0
129	132	-1	0	0	0
134	136	-1	0	0	0
135	137	-1	0	0	0
139	140	-1	0	0	0
138	141	-1	0	0	0
143	145	-1	0	0	0
144	146	-1	0	0	0
148	149	-1	0	0	0
147	150	-1	0	0	0
152	154	-1	0	0	0
153	155	-1	0	0	0
157	158	-1	0	0	0
156	159	-1	0	0	0
161	163	-1	0	0	0
162	164	-1	0	0	0
166	167	-1	0	0	0
165	168	-1	0	0	0
170	172	-1	0	0	0
171	173	-1	0	0	0
175	176	-1	0	0	0
174	177	-1	0	0	0
179	181	-1	0	0	0
180	182	-1	0	0	0
184	185	-1	0	0	0
183	186	-1	0	0	0
188	190	-1	0	0	0
189	191	-1	0	0	0
193	194	-1	0	0	0
192	195	-1	0	0	0
197	199	-1	0	0	0
198	200	-1	0	0	0
202	203	-1	0	0	0
201	204	-1	0	0	0
206	208	-1	0	0	0
207	209	-1	0	0	0
211	212	-1	0	0	0
210	213	-1	0	0	0
215	217	-1	0	0	0