[Format]      =  4.0
[Frequency]   =  0
[Precision]   =  1e-008
[MinAngle]    =  30
[DoSmartMesh] =  1
[Depth]       =  0
[LengthUnits] =  millimeters
[ProblemType] =  planar
[Coordinates] =  cartesian
[ACSolver]    =  0
[PrevType]    =  0
[PrevSoln]    =  ""
[Comment]     =  "Add comments here."
[PointProps]   = 0
[BdryProps]   = 1
  <BeginBdry>
    <BdryName> = "A=0"
    <BdryType> = 0
    <A_0> = 0
    <A_1> = 0
    <A_2> = 0
    <Phi> = 0
    <c0> = 0
    <c0i> = 0
    <c1> = 0
    <c1i> = 0
    <Mu_ssd> = 0
    <Sigma_ssd> = 0
    <innerangle> = 0
    <outerangle> = 0
  <EndBdry>
[BlockProps]  = 7
  <BeginBlock>
    <BlockName> = "u1"
    <Mu_x> = 2.6498996896116669
    <Mu_y> = 2.6498996896116669
    <H_c> = 0
    <H_cAngle> = 0
    <J_re> = 0
    <J_im> = 0
    <Sigma> = 0
    <d_lam> = 0
    <Phi_h> = 0
    <Phi_hx> = 0
    <Phi_hy> = 0
    <LamType> = 0
    <LamFill> = 1
    <NStrands> = 0
    <WireD> = 0
    <BHPoints> = 0
  <EndBlock>
  <BeginBlock>
    <BlockName> = "u2"
    <Mu_x> = 0.12953316809300527
    <Mu_y> = 0.12953316809300527
    <H_c> = 0
    <H_cAngle> = 0
    <J_re> = 0
    <J_im> = 0
    <Sigma> = 0
    <d_lam> = 0
    <Phi_h> = 0
    <Phi_hx> = 0
    <Phi_hy> = 0
    <LamType> = 0
    <LamFill> = 1
    <NStrands> = 0
    <WireD> = 0
    <BHPoints> = 0
  <EndBlock>
  <BeginBlock>
    <BlockName> = "u3"
    <Mu_x> = 14.398967120915913
    <Mu_y> = 14.398967120915913
    <H_c> = 0
    <H_cAngle> = 0
    <J_re> = 0
    <J_im> = 0
    <Sigma> = 0
    <d_lam> = 0
    <Phi_h> = 0
    <Phi_hx> = 0
    <Phi_hy> = 0
    <LamType> = 0
    <LamFill> = 1
    <NStrands> = 0
    <WireD> = 0
    <BHPoints> = 0
  <EndBlock>
  <BeginBlock>
    <BlockName> = "u4"
    <Mu_x> = 0.042882574356338271
    <Mu_y> = 0.042882574356338271
    <H_c> = 0
    <H_cAngle> = 0
    <J_re> = 0
    <J_im> = 0
    <Sigma> = 0
    <d_lam> = 0
    <Phi_h> = 0
    <Phi_hx> = 0
    <Phi_hy> = 0
    <LamType> = 0
    <LamFill> = 1
    <NStrands> = 0
    <WireD> = 0
    <BHPoints> = 0
  <EndBlock>
  <BeginBlock>
    <BlockName> = "u5"
    <Mu_x> = 37.197476986533054
    <Mu_y> = 37.197476986533054
    <H_c> = 0
    <H_cAngle> = 0
    <J_re> = 0
    <J_im> = 0
    <Sigma> = 0
    <d_lam> = 0
    <Phi_h> = 0
    <Phi_hx> = 0
    <Phi_hy> = 0
    <LamType> = 0
    <LamFill> = 1
    <NStrands> = 0
    <WireD> = 0
    <BHPoints> = 0
  <EndBlock>
  <BeginBlock>
    <BlockName> = "u6"
    <Mu_x> = 0.015664246064106369
    <Mu_y> = 0.015664246064106369
    <H_c> = 0
    <H_cAngle> = 0
    <J_re> = 0
    <J_im> = 0
    <Sigma> = 0
    <d_lam> = 0
    <Phi_h> = 0
    <Phi_hx> = 0
    <Phi_hy> = 0
    <LamType> = 0
    <LamFill> = 1
    <NStrands> = 0
    <WireD> = 0
    <BHPoints> = 0
  <EndBlock>
  <BeginBlock>
    <BlockName> = "u7"
    <Mu_x> = 142.03015659052124
    <Mu_y> = 142.03015659052124
    <H_c> = 0
    <H_cAngle> = 0
    <J_re> = 0
    <J_im> = 0
    <Sigma> = 0
    <d_lam> = 0
    <Phi_h> = 0
    <Phi_hx> = 0
    <Phi_hy> = 0
    <LamType> = 0
    <LamFill> = 1
    <NStrands> = 0
    <WireD> = 0
    <BHPoints> = 0
  <EndBlock>
[CircuitProps]  = 0
[NumPoints] = 376
25	0	0	0
-25	0	0	0
40	0	0	0
-40	0	0	0
50	0	0	0
36.541818305704034	-16.269465723032006	0	0
36.541818305704034	16.269465723032006	0	0
45.67727288213004	-20.336832153790006	0	0
45.67727288213004	20.336832153790006	0	0
25.000000000000007	43.301270189221931	0	0
32.360679774997898	23.511410091698927	0	0
4.1811385307061384	39.780875814730933	0	0
40.450849718747371	29.389262614623657	0	0
5.2264231633826732	49.726094768413667	0	0
-24.999999999999989	43.301270189221938	0	0
-4.1811385307061331	39.780875814730933	0	0
-32.360679774997891	23.511410091698931	0	0
-5.226423163382667	49.726094768413667	0	0
-40.450849718747364	29.389262614623661	0	0
-50	6.1232339957367661e-015	0	0
-36.541818305704027	16.269465723032017	0	0
-36.541818305704041	-16.269465723031992	0	0
-45.67727288213004	20.33683215379002	0	0
-45.677272882130055	-20.336832153789992	0	0
-25.000000000000021	-43.301270189221917	0	0
-32.360679774997905	-23.51141009169892	0	0
-4.1811385307061339	-39.780875814730933	0	0
-40.450849718747378	-29.38926261462365	0	0
-5.2264231633826679	-49.726094768413667	0	0
25.000000000000007	-43.301270189221931	0	0
4.1811385307061197	-39.780875814730933	0	0
32.360679774997891	-23.511410091698934	0	0
5.2264231633826492	-49.726094768413667	0	0
40.450849718747364	-29.389262614623668	0	0
55	0	0	0
59.853843015589455	-4.1853884246475186	0	0
59.853843015589455	4.1853884246475186	0	0
54.866022764290328	-3.8366060559268917	0	0
54.866022764290328	3.8366060559268917	0	0
59.947894041408993	2.5	0	0
59.947894041408993	-2.5	0	0
79.960927958597381	-2.5	0	0
79.960927958597381	2.5	0	0
79.180262235844651	-11.423050042036616	0	0
54.164426415671443	9.5506497716811687	0	0
59.6713137220964	6.2717077960592071	0	0
58.217743576559791	14.515313735980063	0	0
54.69870424525503	5.7490654797209402	0	0
53.366264945179807	13.305704257981725	0	0
58.603030384566601	12.871861937791424	0	0
59.471271272901255	7.9478231727303825	0	0
79.180262235844651	11.423050042036616	0	0
78.312021347510012	16.347088807097656	0	0
51.683094143224963	18.811107882911781	0	0
57.675701756299134	16.538241349019948	0	0
54.812727458556054	24.404198584548009	0	0
52.869393276607539	15.160054569934953	0	0
50.245000170343047	22.370515369169009	0	0
55.477543304053391	22.852618864079474	0	0
57.187644020681731	18.154155760149933	0	0
75.993744312201756	24.999016488888177	0	0
74.283643595573409	29.697479592817718	0	0
47.631397208144129	27.499999999999996	0	0
53.92764277795002	26.302268807344646	0	0
49.742254353302499	33.551574208244816	0	0
49.43367254645419	24.110413073399258	0	0
45.59706649052729	30.755609690891081	0	0
50.66639914323796	32.139010530165599	0	0
53.166399143237967	27.808883511243401	0	0
70.49819492232271	37.815400469837584	0	0
67.99819492232271	42.145527488759782	0	0
42.132444371543791	35.353318532759658	0	0
48.541019662496851	35.267115137548387	0	0
43.160388020319068	41.679502227539835	0	0
44.495934690622107	32.328188876086024	0	0
39.563689018625816	38.206210375244851	0	0
44.315782082890301	40.448874624416675	0	0
47.52972013132301	36.618652408821774	0	0
62.860593553536795	49.482782643026937	0	0
59.6466555051041	53.313004858621831	0	0
35.353318532759666	42.132444371543791	0	0
41.679502227539842	43.160388020319061	0	0
35.267115137548387	48.541019662496851	0	0
38.206210375244858	39.563689018625809	0	0
32.328188876086024	44.495934690622107	0	0
36.618652408821774	47.529720131323003	0	0
40.448874624416668	44.315782082890308	0	0
53.313004858621824	59.646655505104107	0	0
49.482782643026937	62.860593553536795	0	0
27.500000000000007	47.631397208144122	0	0
33.551574208244809	49.742254353302506	0	0
26.302268807344646	53.92764277795002	0	0
30.755609690891074	45.597066490527297	0	0
24.110413073399261	49.43367254645419	0	0
27.808883511243398	53.166399143237967	0	0
32.139010530165599	50.66639914323796	0	0
42.145527488759797	67.99819492232271	0	0
37.815400469837584	70.49819492232271	0	0
18.811107882911784	51.683094143224956	0	0
24.404198584548013	54.812727458556054	0	0
16.538241349019948	57.675701756299134	0	0
22.370515369169013	50.245000170343047	0	0
15.160054569934953	52.869393276607539	0	0
18.154155760149944	57.187644020681731	0	0
22.852618864079467	55.477543304053391	0	0
29.697479592817722	74.283643595573409	0	0
24.999016488888191	75.993744312201756	0	0
9.5506497716811722	54.164426415671443	0	0
14.515313735980074	58.217743576559791	0	0
6.2717077960592071	59.6713137220964	0	0
13.305704257981734	53.366264945179807	0	0
5.7490654797209402	54.69870424525503	0	0
7.9478231727303923	59.471271272901255	0	0
12.871861937791426	58.603030384566601	0	0
16.347088807097659	78.312021347509997	0	0
11.423050042036627	79.180262235844651	0	0
3.3677786976552213e-015	55	0	0
4.1853884246475275	59.853843015589455	0	0
-4.1853884246475195	59.853843015589455	0	0
3.8366060559269002	54.866022764290328	0	0
-3.8366060559268931	54.866022764290328	0	0
-2.4999999999999925	59.947894041409	0	0
2.5	59.947894041408993	0	0
2.5000000000000004	79.960927958597381	0	0
-2.4999999999999907	79.960927958597381	0	0
-9.5506497716811669	54.164426415671443	0	0
-6.2717077960592	59.671313722096407	0	0
-14.515313735980067	58.217743576559791	0	0
-5.7490654797209331	54.698704245255037	0	0
-13.305704257981729	53.366264945179807	0	0
-12.871861937791419	58.603030384566601	0	0
-7.9478231727303852	59.471271272901255	0	0
-11.423050042036618	79.180262235844651	0	0
-16.347088807097649	78.312021347510012	0	0
-18.811107882911781	51.683094143224963	0	0
-16.538241349019945	57.675701756299134	0	0
-24.404198584548002	54.812727458556061	0	0
-15.160054569934948	52.869393276607539	0	0
-22.370515369169002	50.245000170343054	0	0
-22.85261886407946	55.477543304053391	0	0
-18.154155760149937	57.187644020681731	0	0
-24.999016488888177	75.993744312201756	0	0
-29.697479592817729	74.283643595573409	0	0
-27.499999999999989	47.631397208144129	0	0
-26.30226880734465	53.927642777950012	0	0
-33.551574208244801	49.742254353302506	0	0
-24.110413073399265	49.433672546454183	0	0
-30.755609690891067	45.597066490527297	0	0
-32.139010530165578	50.666399143237975	0	0
-27.808883511243415	53.16639914323796	0	0
-37.815400469837577	70.49819492232271	0	0
-42.145527488759797	67.998194922322696	0	0
-35.353318532759666	42.132444371543791	0	0
-35.26711513754838	48.541019662496851	0	0
-41.679502227539821	43.160388020319083	0	0
-32.328188876086017	44.495934690622107	0	0
-38.206210375244837	39.56368901862583	0	0
-40.448874624416668	44.315782082890308	0	0
-36.618652408821774	47.529720131323003	0	0
-49.482782643026908	62.860593553536816	0	0
-53.313004858621824	59.646655505104107	0	0
-42.132444371543784	35.353318532759673	0	0
-43.160388020319068	41.679502227539828	0	0
-48.541019662496844	35.267115137548394	0	0
-39.563689018625816	38.206210375244844	0	0
-44.495934690622107	32.328188876086031	0	0
-47.529720131322996	36.618652408821788	0	0
-44.315782082890301	40.448874624416675	0	0
-59.6466555051041	53.313004858621831	0	0
-62.860593553536788	49.482782643026951	0	0
-47.631397208144129	27.499999999999996	0	0
-49.742254353302499	33.551574208244816	0	0
-53.92764277795002	26.302268807344639	0	0
-45.59706649052729	30.755609690891081	0	0
-49.43367254645419	24.110413073399251	0	0
-53.166399143237967	27.808883511243401	0	0
-50.666399143237967	32.139010530165592	0	0
-67.998194922322696	42.145527488759811	0	0
-70.49819492232271	37.815400469837591	0	0
-51.683094143224956	18.811107882911788	0	0
-54.812727458556047	24.404198584548027	0	0
-57.675701756299119	16.53824134901998	0	0
-50.24500017034304	22.370515369169024	0	0
-52.869393276607525	15.160054569934982	0	0
-57.187644020681731	18.154155760149948	0	0
-55.477543304053384	22.852618864079485	0	0
-74.283643595573409	29.697479592817725	0	0
-75.993744312201756	24.999016488888195	0	0
-54.164426415671443	9.5506497716811651	0	0
-58.217743576559791	14.515313735980063	0	0
-59.6713137220964	6.271707796059224	0	0
-53.366264945179807	13.305704257981725	0	0
-54.69870424525503	5.7490654797209553	0	0
-59.471271272901255	7.9478231727303825	0	0
-58.603030384566601	12.871861937791415	0	0
-78.312021347509997	16.347088807097681	0	0
-79.180262235844651	11.42305004203665	0	0
-55	6.7355573953104426e-015	0	0
-59.853843015589455	4.185388424647531	0	0
-59.853843015589462	-4.1853884246474902	0	0
-54.866022764290328	3.8366060559269037	0	0
-54.866022764290335	-3.8366060559268655	0	0
-59.947894041409	-2.4999999999999889	0	0
-59.947894041408993	2.5000000000000036	0	0
-79.960927958597381	2.5000000000000404	0	0
-79.960927958597381	-2.4999999999999858	0	0
-54.164426415671443	-9.5506497716811758	0	0
-59.671313722096407	-6.2717077960591832	0	0
-58.217743576559791	-14.515313735980051	0	0
-54.698704245255037	-5.749065479720918	0	0
-53.366264945179807	-13.305704257981713	0	0
-58.603030384566601	-12.871861937791428	0	0
-59.471271272901255	-7.9478231727303958	0	0
-79.180262235844651	-11.423050042036596	0	0
-78.312021347510012	-16.347088807097624	0	0
-51.683094143224963	-18.811107882911777	0	0
-57.675701756299134	-16.538241349019941	0	0
-54.812727458556068	-24.404198584547988	0	0
-52.869393276607539	-15.160054569934944	0	0
-50.245000170343062	-22.370515369168992	0	0
-55.477543304053391	-22.852618864079471	0	0
-57.187644020681731	-18.154155760149933	0	0
-75.99374431220177	-24.999016488888142	0	0
-74.283643595573409	-29.697479592817707	0	0
-47.631397208144122	-27.500000000000007	0	0
-53.927642777950027	-26.302268807344625	0	0
-49.742254353302513	-33.551574208244801	0	0
-49.43367254645419	-24.11041307339924	0	0
-45.597066490527304	-30.755609690891067	0	0
-50.66639914323796	-32.139010530165599	0	0
-53.16639914323796	-27.808883511243412	0	0
-70.49819492232271	-37.815400469837577	0	0
-67.998194922322725	-42.145527488759768	0	0
-42.132444371543791	-35.353318532759658	0	0
-48.541019662496851	-35.26711513754838	0	0
-43.160388020319061	-41.679502227539842	0	0
-44.495934690622114	-32.328188876086017	0	0
-39.563689018625809	-38.206210375244858	0	0
-44.315782082890308	-40.448874624416661	0	0
-47.529720131323003	-36.618652408821774	0	0
-62.860593553536823	-49.482782643026908	0	0
-59.646655505104107	-53.313004858621824	0	0
-35.353318532759673	-42.132444371543784	0	0
-41.679502227539857	-43.160388020319054	0	0
-35.267115137548394	-48.541019662496844	0	0
-38.206210375244865	-39.563689018625794	0	0
-32.328188876086031	-44.495934690622107	0	0
-36.618652408821788	-47.529720131322996	0	0
-40.448874624416653	-44.315782082890316	0	0
-53.313004858621838	-59.646655505104093	0	0
-49.48278264302693	-62.860593553536802	0	0
-27.500000000000025	-47.631397208144108	0	0
-33.551574208244837	-49.742254353302485	0	0
-26.302268807344664	-53.927642777950012	0	0
-30.755609690891099	-45.597066490527276	0	0
-24.110413073399275	-49.433672546454176	0	0
-27.808883511243426	-53.166399143237953	0	0
-32.139010530165571	-50.666399143237982	0	0
-42.145527488759782	-67.99819492232271	0	0
-37.815400469837599	-70.49819492232271	0	0
-18.811107882911816	-51.683094143224949	0	0
-24.404198584548006	-54.812727458556061	0	0
-16.538241349019934	-57.675701756299141	0	0
-22.370515369169006	-50.245000170343054	0	0
-15.160054569934939	-52.869393276607546	0	0
-18.154155760149976	-57.187644020681724	0	0
-22.85261886407946	-55.477543304053391	0	0
-29.697479592817729	-74.283643595573409	0	0
-24.999016488888198	-75.993744312201756	0	0
-9.5506497716811687	-54.164426415671443	0	0
-14.515313735980067	-58.217743576559791	0	0
-6.2717077960592018	-59.671313722096407	0	0
-13.305704257981729	-53.366264945179807	0	0
-5.7490654797209348	-54.698704245255037	0	0
-7.947823172730387	-59.471271272901255	0	0
-12.871861937791472	-58.603030384566587	0	0
-16.347088807097684	-78.312021347509997	0	0
-11.423050042036653	-79.180262235844651	0	0
-1.0103336092965664e-014	-55	0	0
-4.1853884246475346	-59.853843015589455	0	0
4.1853884246475133	-59.853843015589462	0	0
-3.8366060559269068	-54.866022764290328	0	0
3.8366060559268869	-54.866022764290335	0	0
2.5000000000000386	-59.947894041408993	0	0
-2.5000000000000075	-59.947894041408993	0	0
-2.4999999999999747	-79.960927958597381	0	0
2.500000000000016	-79.960927958597381	0	0
9.5506497716811491	-54.16442641567145	0	0
6.2717077960591787	-59.671313722096407	0	0
14.515313735980047	-58.217743576559798	0	0
5.7490654797209144	-54.698704245255037	0	0
13.305704257981709	-53.366264945179815	0	0
12.871861937791451	-58.603030384566594	0	0
7.9478231727303656	-59.471271272901255	0	0
11.423050042036625	-79.180262235844651	0	0
16.347088807097656	-78.312021347510012	0	0
18.811107882911749	-51.68309414322497	0	0
16.538241349019962	-57.675701756299127	0	0
24.404198584548034	-54.812727458556047	0	0
15.160054569934966	-52.869393276607532	0	0
22.370515369169031	-50.24500017034304	0	0
22.852618864079489	-55.477543304053384	0	0
18.154155760149909	-57.187644020681738	0	0
24.999016488888167	-75.993744312201756	0	0
29.697479592817704	-74.283643595573423	0	0
27.500000000000007	-47.631397208144122	0	0
26.302268807344646	-53.92764277795002	0	0
33.551574208244773	-49.742254353302528	0	0
24.110413073399258	-49.43367254645419	0	0
30.755609690891042	-45.597066490527311	0	0
32.139010530165599	-50.666399143237967	0	0
27.808883511243362	-53.166399143237989	0	0
37.81540046983757	-70.49819492232271	0	0
42.145527488759754	-67.998194922322725	0	0
35.353318532759658	-42.132444371543798	0	0
35.267115137548373	-48.541019662496851	0	0
41.679502227539793	-43.160388020319104	0	0
32.32818887608601	-44.495934690622114	0	0
38.206210375244815	-39.563689018625844	0	0
40.448874624416703	-44.31578208289028	0	0
36.618652408821731	-47.529720131323032	0	0
49.482782643026965	-62.860593553536781	0	0
53.313004858621838	-59.646655505104093	0	0
42.132444371543777	-35.35331853275968	0	0
43.160388020319054	-41.679502227539857	0	0
48.541019662496844	-35.267115137548402	0	0
39.563689018625794	-38.206210375244865	0	0
44.495934690622107	-32.328188876086031	0	0
47.529720131323018	-36.618652408821752	0	0
44.315782082890259	-40.448874624416717	0	0
59.646655505104064	-53.313004858621866	0	0
62.860593553536802	-49.48278264302693	0	0
47.631397208144108	-27.500000000000025	0	0
49.742254353302485	-33.551574208244844	0	0
53.927642777950027	-26.302268807344621	0	0
45.597066490527276	-30.755609690891106	0	0
49.43367254645419	-24.110413073399236	0	0
53.166399143237975	-27.808883511243383	0	0
50.666399143237953	-32.139010530165621	0	0
67.998194922322668	-42.145527488759846	0	0
70.49819492232271	-37.815400469837599	0	0
51.683094143224963	-18.811107882911774	0	0
54.812727458556061	-24.404198584548009	0	0
57.675701756299119	-16.538241349019987	0	0
50.245000170343054	-22.370515369169009	0	0
52.869393276607525	-15.160054569934987	0	0
57.187644020681731	-18.15415576014993	0	0
55.477543304053391	-22.852618864079464	0	0
74.283643595573409	-29.697479592817736	0	0
75.993744312201756	-24.999016488888202	0	0
54.164426415671436	-9.5506497716812202	0	0
58.217743576559791	-14.515313735980072	0	0
59.6713137220964	-6.2717077960592054	0	0
53.366264945179807	-13.305704257981732	0	0
54.69870424525503	-5.7490654797209375	0	0
59.471271272901262	-7.9478231727303372	0	0
58.603030384566587	-12.871861937791476	0	0
78.312021347509997	-16.347088807097691	0	0
100	0	0	0
-100	0	0	0
0	212.132034355965	0	0
0	-212.132034355965	0	0
0	-215.16249198962163	0	0
0	215.16249198962163	0	0
0	-218.19294962327825	0	0
0	218.19294962327825	0	0
0	-221.22340725693493	0	0
0	221.22340725693493	0	0
0	-224.25386489059159	0	0
0	224.25386489059159	0	0
0	-227.28432252424821	0	0
0	227.28432252424821	0	0
0	-230.31478015790483	0	0
0	230.31478015790483	0	0
0	-233.34523779156152	0	0
0	233.34523779156152	0	0
[NumSegments] = 156
5	7	-1	0	0	0
6	8	-1	0	0	0
10	12	-1	0	0	0
11	13	-1	0	0	0
15	17	-1	0	0	0
16	18	-1	0	0	0
20	22	-1	0	0	0
21	23	-1	0	0	0
25	27	-1	0	0	0
26	28	-1	0	0	0
30	32	-1	0	0	0
31	33	-1	0	0	0
35	37	-1	0	0	0
36	38	-1	0	0	0
40	41	-1	0	0	0
39	42	-1	0	0	0
45	47	-1	0	0	0
46	48	-1	0	0	0
50	51	-1	0	0	0
49	52	-1	0	0	0
54	56	-1	0	0	0
55	57	-1	0	0	0
59	60	-1	0	0	0
58	61	-1	0	0	0
63	65	-1	0	0	0
64	66	-1	0	0	0
68	69	-1	0	0	0
67	70	-1	0	0	0
72	74	-1	0	0	0
73	75	-1	0	0	0
77	78	-1	0	0	0
76	79	-1	0	0	0
81	83	-1	0	0	0
82	84	-1	0	0	0
86	87	-1	0	0	0
85	88	-1	0	0	0
90	92	-1	0	0	0
91	93	-1	0	0	0
95	96	-1	0	0	0
94	97	-1	0	0	0
99	101	-1	0	0	0
100	102	-1	0	0	0
104	105	-1	0	0	0
103	106	-1	0	0	0
108	110	-1	0	0	0
109	111	-1	0	0	0
113	114	-1	0	0	0
112	115	-1	0	0	0
117	119	-1	0	0	0
118	120	-1	0	0	0
122	123	-1	0	0	0
121	124	-1	0	0	0
126	128	-1	0	0	0
127	129	-1	0	0	0
131	132	-1	0	0	0
130	133	-1	0	0	0
135	137	-1	0	0	0
136	138	-1	0	0	0
140	141	-1	0	0	0
139	142	-1	0	0	0
144	146	-1	0	0	0
145	147	-1	0	0	0
149	150	-1	0	0	0
148	151	-1	0	0	0
153	155	-1	0	0	0
154	156	-1	0	0	0
158	159	-1	0	0	0
157	160	-1	0	0	0
162	164	-1	0	0	0
163	165	-1	0	0	0
167	168	-1	0	0	0
166	169	-1	0	0	0
171	173	-1	0	0	0
172	174	-1	0	0	0
176	177	-1	0	0	0
175	178	-1	0	0	0
180	182	-1	0	0	0
181	183	-1	0	0	0
185	186	-1	0	0	0
184	187	-1	0	0	0
189	191	-1	0	0	0
190	192	-1	0	0	0
194	195	-1	0	0	0
193	196	-1	0	0	0
198	200	-1	0	0	0
199	201	-1	0	0	0
203	204	-1	0	0	0
202	205	-1	0	0	0
207	209	-1	0	0	0
208	210	-1	0	0	0
212	213	-1	0	0	0
211	214	-1	0	0	0
216	218	-1	0	0	0
217	219	-1	0	0	0
221	222	-1	0	0	0
220	223	-1	0	0	0
225	227	-1	0	0	0
226	228	-1	0	0	0
230	231	-1	0	0	0
229	232	-1	0	0	0
234	236	-1	0	0	0
235	237	-1	0	0	0
239	240	-1	0	0	0
238	241	-1	0	0	0
243	245	-1	0	0	0
244	246	-1	0	0	0
248	249	-1	0	0	0
247	250	-1	0	0	0
252	254	-1	0	0	0
253	255	-1	0	0	0
257	258	-1	0	0	0
256	259	-1	0	0	0
261	263	-1	0	0	0
262	264	-1	0	0	0
266	267	-1	0	0	0
265	268	-1	0	0	0
270	272	-1	0	0	0
271	273	-1	0	0	0
275	276	-1	0	0	0
274	277	-1	0	0	0
279	281	-1	0	0	0
280	282	-1	0	0	0
284	285	-1	0	0	0
283	286	-1	0	0	0
288	290	-1	0	0	0
289	291	-1	0	0	0
293	294	-1	0	0	0
292	295	-1	0	0	0
297	299	-1	0	0	0
298	300	-1	0	0	0
302	303	-1	0	0	0
301	304	-1	0	0	0
306	308	-1	0	0	0
307	309	-1	0	0	0
311	312	-1	0	0	0
310	313	-1	0	0	0
315	317	-1	0	0	0
316	318	-1	0	0	0
320	321	-1	0	0	0
319	322	-1	0	0	0
324	326	-1	0	0	0
325	327	-1	0	0	0
329	330	-1	0	0	0
328	331	-1	0	0	0
333	335	-1	0	0	0
334	336	-1	0	0	0
338	339	-1	0	0	0
337	340	-1	0	0	0
342	344	-1	0	0	0
343	345	-1	0	0	0
347	348	-1	0	0	0
346	349	-1	0	0	0
351	353	-1	0	0	0
352	354	-1	0	0	0
356	357	-1	0	0	0
355	43	-1	0	0	0
[NumArcSegments] = 226
0	1	180	10	0	0	0	1
1	0	180	10	0	0	0	1
2	6	24	10	0	0	0	1
3	21	23.999999999999979	10	0	0	0	1
5	2	24	10	0	0	0	1
6	10	12.000000000000005	10	0	0	0	1
7	4	24	10	0	0	0	1
4	8	24	10	0	0	0	1
10	11	47.999999999999993	10	0	0	0	1
11	15	11.999999999999989	10	0	0	0	1
12	9	23.999999999999986	10	0	0	0	1
9	13	24.000000000000011	10	0	0	0	1
15	16	47.999999999999979	10	0	0	0	1
16	20	11.999999999999995	10	0	0	0	1
17	14	23.999999999999996	10	0	0	0	1
14	18	24	10	0	0	0	1
20	3	24.000000000000004	10	0	0	0	1
21	25	12.000000000000007	10	0	0	0	1
22	19	24.000000000000011	10	0	0	0	1
19	23	23.999999999999986	10	0	0	0	1
25	26	47.999999999999993	10	0	0	0	1
26	30	11.999999999999957	10	0	0	0	1
27	24	23.999999999999964	10	0	0	0	1
24	28	24.000000000000021	10	0	0	0	1
30	31	47.999999999999964	10	0	0	0	1
31	5	12.000000000000007	10	0	0	0	1
32	29	24.000000000000028	10	0	0	0	1
29	33	23.999999999999968	10	0	0	0	1
37	34	4	10	0	0	0	1
34	38	4	10	0	0	0	1
35	40	2.8059922683656113	10	0	0	0	1
39	36	2.8059922683656113	10	0	0	0	1
43	41	6.4184306813421017	10	0	0	0	1
47	44	4	10	0	0	0	1
44	48	4	10	0	0	0	1
45	50	2.8059922683656113	10	0	0	0	1
49	46	2.8059922683656113	10	0	0	0	1
42	51	6.4184306813421017	10	0	0	0	1
56	53	4.0000000000000027	10	0	0	0	1
53	57	3.9999999999999973	10	0	0	0	1
54	59	2.8059922683656113	10	0	0	0	1
58	55	2.8059922683656113	10	0	0	0	1
52	60	6.4184306813421017	10	0	0	0	1
65	62	3.9999999999999902	10	0	0	0	1
62	66	4.0000000000000098	10	0	0	0	1
63	68	2.8059922683656113	10	0	0	0	1
67	64	2.8059922683656113	10	0	0	0	1
61	69	6.4184306813421017	10	0	0	0	1
74	71	3.9999999999999982	10	0	0	0	1
71	75	4.0000000000000036	10	0	0	0	1
72	77	2.8059922683656113	10	0	0	0	1
76	73	2.8059922683656113	10	0	0	0	1
70	78	6.4184306813421017	10	0	0	0	1
83	80	4	10	0	0	0	1
80	84	3.9999999999999973	10	0	0	0	1
81	86	2.8059922683656113	10	0	0	0	1
85	82	2.8059922683656113	10	0	0	0	1
79	87	6.4184306813421017	10	0	0	0	1
92	89	3.999999999999992	10	0	0	0	1
89	93	4.0000000000000098	10	0	0	0	1
90	95	2.8059922683656113	10	0	0	0	1
94	91	2.8059922683656113	10	0	0	0	1
88	96	6.4184306813421017	10	0	0	0	1
101	98	3.9999999999999938	10	0	0	0	1
98	102	4.0000000000000062	10	0	0	0	1
99	104	2.8059922683656113	10	0	0	0	1
103	100	2.8059922683656113	10	0	0	0	1
97	105	6.4184306813421017	10	0	0	0	1
110	107	4.0000000000000018	10	0	0	0	1
107	111	3.9999999999999982	10	0	0	0	1
108	113	2.8059922683656113	10	0	0	0	1
112	109	2.8059922683656113	10	0	0	0	1
106	114	6.4184306813421017	10	0	0	0	1
119	116	4.0000000000000009	10	0	0	0	1
116	120	4.0000000000000009	10	0	0	0	1
117	122	2.8059922683656113	10	0	0	0	1
121	118	2.8059922683656113	10	0	0	0	1
115	123	6.4184306813421017	10	0	0	0	1
128	125	4	10	0	0	0	1
125	129	4	10	0	0	0	1
126	131	2.8059922683656113	10	0	0	0	1
130	127	2.8059922683656113	10	0	0	0	1
124	132	6.4184306813421017	10	0	0	0	1
137	134	4.0000000000000062	10	0	0	0	1
134	138	3.9999999999999902	10	0	0	0	1
135	140	2.8059922683656113	10	0	0	0	1
139	136	2.8059922683656113	10	0	0	0	1
133	141	6.4184306813421017	10	0	0	0	1
146	143	3.9999999999999902	10	0	0	0	1
143	147	4.0000000000000098	10	0	0	0	1
144	149	2.8059922683656113	10	0	0	0	1
148	145	2.8059922683656113	10	0	0	0	1
142	150	6.4184306813421017	10	0	0	0	1
155	152	4.0000000000000133	10	0	0	0	1
152	156	3.9999999999999876	10	0	0	0	1
153	158	2.8059922683656113	10	0	0	0	1
157	154	2.8059922683656113	10	0	0	0	1
151	159	6.4184306813421017	10	0	0	0	1
164	161	3.9999999999999876	10	0	0	0	1
161	165	4.0000000000000133	10	0	0	0	1
162	167	2.8059922683656113	10	0	0	0	1
166	163	2.8059922683656113	10	0	0	0	1
160	168	6.4184306813421017	10	0	0	0	1
173	170	4.0000000000000036	10	0	0	0	1
170	174	4	10	0	0	0	1
171	176	2.8059922683656113	10	0	0	0	1
175	172	2.8059922683656113	10	0	0	0	1
169	177	6.4184306813421017	10	0	0	0	1
182	179	4.0000000000000115	10	0	0	0	1
179	183	3.999999999999984	10	0	0	0	1
180	185	2.8059922683656113	10	0	0	0	1
184	181	2.8059922683656113	10	0	0	0	1
178	186	6.4184306813421017	10	0	0	0	1
191	188	4.0000000000000142	10	0	0	0	1
188	192	3.999999999999988	10	0	0	0	1
189	194	2.8059922683656113	10	0	0	0	1
193	190	2.8059922683656113	10	0	0	0	1
187	195	6.4184306813421017	10	0	0	0	1
200	197	4.0000000000000115	10	0	0	0	1
197	201	3.9999999999999862	10	0	0	0	1
198	203	2.8059922683656113	10	0	0	0	1
202	199	2.8059922683656113	10	0	0	0	1
196	204	6.4184306813421017	10	0	0	0	1
209	206	4.0000000000000249	10	0	0	0	1
206	210	3.9999999999999756	10	0	0	0	1
207	212	2.8059922683656113	10	0	0	0	1
211	208	2.8059922683656113	10	0	0	0	1
205	213	6.4184306813421017	10	0	0	0	1
218	215	4.0000000000000133	10	0	0	0	1
215	219	3.9999999999999849	10	0	0	0	1
216	221	2.8059922683656113	10	0	0	0	1
220	217	2.8059922683656113	10	0	0	0	1
214	222	6.4184306813421017	10	0	0	0	1
227	224	4.0000000000000258	10	0	0	0	1
224	228	3.9999999999999756	10	0	0	0	1
225	230	2.8059922683656113	10	0	0	0	1
229	226	2.8059922683656113	10	0	0	0	1
223	231	6.4184306813421017	10	0	0	0	1
236	233	3.9999999999999938	10	0	0	0	1
233	237	4.0000000000000036	10	0	0	0	1
234	239	2.8059922683656113	10	0	0	0	1
238	235	2.8059922683656113	10	0	0	0	1
232	240	6.4184306813421017	10	0	0	0	1
245	242	4.0000000000000036	10	0	0	0	1
242	246	4	10	0	0	0	1
243	248	2.8059922683656113	10	0	0	0	1
247	244	2.8059922683656113	10	0	0	0	1
241	249	6.4184306813421017	10	0	0	0	1
254	251	3.9999999999999973	10	0	0	0	1
251	255	4.0000000000000062	10	0	0	0	1
252	257	2.8059922683656113	10	0	0	0	1
256	253	2.8059922683656113	10	0	0	0	1
250	258	6.4184306813421017	10	0	0	0	1
263	260	3.9999999999999467	10	0	0	0	1
260	264	4.0000000000000542	10	0	0	0	1
261	266	2.8059922683656113	10	0	0	0	1
265	262	2.8059922683656113	10	0	0	0	1
259	267	6.4184306813421017	10	0	0	0	1
272	269	3.9999999999999982	10	0	0	0	1
269	273	4.0000000000000018	10	0	0	0	1
270	275	2.8059922683656113	10	0	0	0	1
274	271	2.8059922683656113	10	0	0	0	1
268	276	6.4184306813421017	10	0	0	0	1
281	278	4	10	0	0	0	1
278	282	4.0000000000000009	10	0	0	0	1
279	284	2.8059922683656113	10	0	0	0	1
283	280	2.8059922683656113	10	0	0	0	1
277	285	6.4184306813421017	10	0	0	0	1
290	287	4.0000000000000018	10	0	0	0	1
287	291	3.9999999999999978	10	0	0	0	1
288	293	2.8059922683656113	10	0	0	0	1
292	289	2.8059922683656113	10	0	0	0	1
286	294	6.4184306813421017	10	0	0	0	1
299	296	3.9999999999999485	10	0	0	0	1
296	300	4.000000000000048	10	0	0	0	1
297	302	2.8059922683656113	10	0	0	0	1
301	298	2.8059922683656113	10	0	0	0	1
295	303	6.4184306813421017	10	0	0	0	1
308	305	4.000000000000032	10	0	0	0	1
305	309	3.9999999999999725	10	0	0	0	1
306	311	2.8059922683656113	10	0	0	0	1
310	307	2.8059922683656113	10	0	0	0	1
304	312	6.4184306813421017	10	0	0	0	1
317	314	4.0000000000000266	10	0	0	0	1
314	318	3.9999999999999756	10	0	0	0	1
315	320	2.8059922683656113	10	0	0	0	1
319	316	2.8059922683656113	10	0	0	0	1
313	321	6.4184306813421017	10	0	0	0	1
326	323	3.9999999999999902	10	0	0	0	1
323	327	4.0000000000000062	10	0	0	0	1
324	329	2.8059922683656113	10	0	0	0	1
328	325	2.8059922683656113	10	0	0	0	1
322	330	6.4184306813421017	10	0	0	0	1
335	332	3.9999999999999778	10	0	0	0	1
332	336	4.0000000000000258	10	0	0	0	1
333	338	2.8059922683656113	10	0	0	0	1
337	334	2.8059922683656113	10	0	0	0	1
331	339	6.4184306813421017	10	0	0	0	1
344	341	4.0000000000000222	10	0	0	0	1
341	345	3.9999999999999769	10	0	0	0	1
342	347	2.8059922683656113	10	0	0	0	1
346	343	2.8059922683656113	10	0	0	0	1
340	348	6.4184306813421017	10	0	0	0	1
353	350	3.9999999999999485	10	0	0	0	1
350	354	4.0000000000000506	10	0	0	0	1
351	356	2.8059922683656113	10	0	0	0	1
355	352	2.8059922683656113	10	0	0	0	1
349	357	6.4184306813421017	10	0	0	0	1
358	359	180	10	0	0	0	1
359	358	180	10	0	0	0	1
360	361	180	1	0	0	0	1
361	360	180	1	0	0	0	1
362	363	180	1	0	0	0	1
363	362	180	1	0	0	0	1
364	365	180	1	0	0	0	1
365	364	180	1	0	0	0	1
366	367	180	1	0	0	0	1
367	366	180	1	0	0	0	1
368	369	180	1	0	0	0	1
369	368	180	1	0	0	0	1
370	371	180	1	0	0	0	1
371	370	180	1	0	0	0	1
372	373	180	1	0	0	0	1
373	372	180	1	0	0	0	1
374	375	180	1	1	0	0	1
375	374	180	1	1	0	0	1
[NumHoles] = 0
[NumBlockLabels] = 7
209.54209091831086	41.680513370244746	1	-1	0	0	0	1	0
200.18411140427409	82.918973915256899	2	-1	0	0	0	1	0
182.68067394729388	122.06332389228237	3	-1	0	0	0	1	0
157.50000000000057	157.50000000000057	4	-1	0	0	0	1	0
125.4305879996557	187.72014081480543	5	-1	0	0	0	1	0
87.557797630795761	211.38322253178592	6	-1	0	0	0	1	0
45.227791103882574	227.37546035816715	7	-1	0	0	0	1	0
