[Format]      =  4.0
[Frequency]   =  0
[Precision]   =  1e-008
[MinAngle]    =  30
[DoSmartMesh] =  1
[Depth]       =  50
[LengthUnits] =  millimeters
[ProblemType] =  planar
[Coordinates] =  cartesian
[ACSolver]    =  0
[PrevType]    =  0
[PrevSoln]    =  ""
[Comment]     =  "Add comments here."
[PointProps]   = 0
[BdryProps]   = 1
  <BeginBdry>
    <BdryName> = "A=0"
    <BdryType> = 0
    <A_0> = 0
    <A_1> = 0
    <A_2> = 0
    <Phi> = 0
    <c0> = 0
    <c0i> = 0
    <c1> = 0
    <c1i> = 0
    <Mu_ssd> = 0
    <Sigma_ssd> = 0
    <innerangle> = 0
    <outerangle> = 0
  <EndBdry>
[BlockProps]  = 12
  <BeginBlock>
    <BlockName> = "Air"
    <Mu_x> = 1
    <Mu_y> = 1
    <H_c> = 0
    <H_cAngle> = 0
    <J_re> = 0
    <J_im> = 0
    <Sigma> = 0
    <d_lam> = 0
    <Phi_h> = 0
    <Phi_hx> = 0
    <Phi_hy> = 0
    <LamType> = 0
    <LamFill> = 1
    <NStrands> = 0
    <WireD> = 0
    <BHPoints> = 0
  <EndBlock>
  <BeginBlock>
    <BlockName> = "M-27 Steel"
    <Mu_x> = 12138
    <Mu_y> = 12138
    <H_c> = 0
    <H_cAngle> = 0
    <J_re> = 0
    <J_im> = 0
    <Sigma> = 2
    <d_lam> = 0.63500000000000001
    <Phi_h> = 0
    <Phi_hx> = 0
    <Phi_hy> = 0
    <LamType> = 0
    <LamFill> = 0.97999999999999998
    <NStrands> = 0
    <WireD> = 0
    <BHPoints> = 47
      0	0
      0.050000000000000003	17.059828
      0.10000000000000001	25.634971
      0.14999999999999999	31.338353999999999
      0.20000000000000001	35.778996999999997
      0.25	39.602124000000003
      0.29999999999999999	43.123142999999999
      0.34999999999999998	46.520439000000003
      0.40000000000000002	49.908177000000002
      0.45000000000000001	53.368284000000003
      0.5	56.966318000000001
      0.55000000000000004	60.760271000000003
      0.59999999999999998	64.806105000000002
      0.65000000000000002	69.161803000000006
      0.69999999999999996	73.890922000000003
      0.75	79.066315000000003
      0.80000000000000004	84.774675999999999
      0.84999999999999998	91.122721999999996
      0.90000000000000002	98.246298999999993
      0.94999999999999996	106.324591
      1	115.60341699999999
      1.05	126.435124
      1.1000000000000001	139.34975900000001
      1.1499999999999999	155.187082
      1.2	175.350538
      1.25	202.312017
      1.3	240.640455
      1.3500000000000001	299.11802699999998
      1.3999999999999999	394.99338599999999
      1.45	561.72617700000001
      1.5	859.32876299999998
      1.55	1375.4668879999999
      1.6000000000000001	2191.2469139999998
      1.6499999999999999	3328.145908
      1.7	4760.5061720000003
      1.75	6535.3394490000001
      1.8	8788.9706569999998
      1.8500000000000001	11670.804346999999
      1.8999999999999999	15385.186211
      1.95	20246.553030999999
      2	26995.131141000002
      2.0499999999999998	38724.496369
      2.1000000000000001	64917.284463000004
      2.1499999999999999	101489.30933800001
      2.2000000000000002	137202.82896099999
      2.25	176835.706764
      2.2999999999999998	216374.28360900001
  <EndBlock>
  <BeginBlock>
    <BlockName> = "18 AWG"
    <Mu_x> = 1
    <Mu_y> = 1
    <H_c> = 0
    <H_cAngle> = 0
    <J_re> = 0
    <J_im> = 0
    <Sigma> = 58
    <d_lam> = 0
    <Phi_h> = 0
    <Phi_hx> = 0
    <Phi_hy> = 0
    <LamType> = 3
    <LamFill> = 1
    <NStrands> = 1
    <WireD> = 1.0239652968433499
    <BHPoints> = 0
  <EndBlock>
  <BeginBlock>
    <BlockName> = "M-27 Steel"
    <Mu_x> = 12138
    <Mu_y> = 12138
    <H_c> = 0
    <H_cAngle> = 0
    <J_re> = 0
    <J_im> = 0
    <Sigma> = 2
    <d_lam> = 0.63500000000000001
    <Phi_h> = 0
    <Phi_hx> = 0
    <Phi_hy> = 0
    <LamType> = 0
    <LamFill> = 0.97999999999999998
    <NStrands> = 0
    <WireD> = 0
    <BHPoints> = 47
      0	0
      0.050000000000000003	17.059828
      0.10000000000000001	25.634971
      0.14999999999999999	31.338353999999999
      0.20000000000000001	35.778996999999997
      0.25	39.602124000000003
      0.29999999999999999	43.123142999999999
      0.34999999999999998	46.520439000000003
      0.40000000000000002	49.908177000000002
      0.45000000000000001	53.368284000000003
      0.5	56.966318000000001
      0.55000000000000004	60.760271000000003
      0.59999999999999998	64.806105000000002
      0.65000000000000002	69.161803000000006
      0.69999999999999996	73.890922000000003
      0.75	79.066315000000003
      0.80000000000000004	84.774675999999999
      0.84999999999999998	91.122721999999996
      0.90000000000000002	98.246298999999993
      0.94999999999999996	106.324591
      1	115.60341699999999
      1.05	126.435124
      1.1000000000000001	139.34975900000001
      1.1499999999999999	155.187082
      1.2	175.350538
      1.25	202.312017
      1.3	240.640455
      1.3500000000000001	299.11802699999998
      1.3999999999999999	394.99338599999999
      1.45	561.72617700000001
      1.5	859.32876299999998
      1.55	1375.4668879999999
      1.6000000000000001	2191.2469139999998
      1.6499999999999999	3328.145908
      1.7	4760.5061720000003
      1.75	6535.3394490000001
      1.8	8788.9706569999998
      1.8500000000000001	11670.804346999999
      1.8999999999999999	15385.186211
      1.95	20246.553030999999
      2	26995.131141000002
      2.0499999999999998	38724.496369
      2.1000000000000001	64917.284463000004
      2.1499999999999999	101489.30933800001
      2.2000000000000002	137202.82896099999
      2.25	176835.706764
      2.2999999999999998	216374.28360900001
  <EndBlock>
  <BeginBlock>
    <BlockName> = "NdFeB 32 MGOe"
    <Mu_x> = 1.0449999999999999
    <Mu_y> = 1.0449999999999999
    <H_c> = 883310
    <H_cAngle> = 0
    <J_re> = 0
    <J_im> = 0
    <Sigma> = 0.69399999999999995
    <d_lam> = 0
    <Phi_h> = 0
    <Phi_hx> = 0
    <Phi_hy> = 0
    <LamType> = 0
    <LamFill> = 1
    <NStrands> = 0
    <WireD> = 0
    <BHPoints> = 0
  <EndBlock>
  <BeginBlock>
    <BlockName> = "u1"
    <Mu_x> = 2.6498996896116669
    <Mu_y> = 2.6498996896116669
    <H_c> = 0
    <H_cAngle> = 0
    <J_re> = 0
    <J_im> = 0
    <Sigma> = 0
    <d_lam> = 0
    <Phi_h> = 0
    <Phi_hx> = 0
    <Phi_hy> = 0
    <LamType> = 0
    <LamFill> = 1
    <NStrands> = 0
    <WireD> = 0
    <BHPoints> = 0
  <EndBlock>
  <BeginBlock>
    <BlockName> = "u2"
    <Mu_x> = 0.12953316809300527
    <Mu_y> = 0.12953316809300527
    <H_c> = 0
    <H_cAngle> = 0
    <J_re> = 0
    <J_im> = 0
    <Sigma> = 0
    <d_lam> = 0
    <Phi_h> = 0
    <Phi_hx> = 0
    <Phi_hy> = 0
    <LamType> = 0
    <LamFill> = 1
    <NStrands> = 0
    <WireD> = 0
    <BHPoints> = 0
  <EndBlock>
  <BeginBlock>
    <BlockName> = "u3"
    <Mu_x> = 14.398967120915913
    <Mu_y> = 14.398967120915913
    <H_c> = 0
    <H_cAngle> = 0
    <J_re> = 0
    <J_im> = 0
    <Sigma> = 0
    <d_lam> = 0
    <Phi_h> = 0
    <Phi_hx> = 0
    <Phi_hy> = 0
    <LamType> = 0
    <LamFill> = 1
    <NStrands> = 0
    <WireD> = 0
    <BHPoints> = 0
  <EndBlock>
  <BeginBlock>
    <BlockName> = "u4"
    <Mu_x> = 0.042882574356338271
    <Mu_y> = 0.042882574356338271
    <H_c> = 0
    <H_cAngle> = 0
    <J_re> = 0
    <J_im> = 0
    <Sigma> = 0
    <d_lam> = 0
    <Phi_h> = 0
    <Phi_hx> = 0
    <Phi_hy> = 0
    <LamType> = 0
    <LamFill> = 1
    <NStrands> = 0
    <WireD> = 0
    <BHPoints> = 0
  <EndBlock>
  <BeginBlock>
    <BlockName> = "u5"
    <Mu_x> = 37.197476986533054
    <Mu_y> = 37.197476986533054
    <H_c> = 0
    <H_cAngle> = 0
    <J_re> = 0
    <J_im> = 0
    <Sigma> = 0
    <d_lam> = 0
    <Phi_h> = 0
    <Phi_hx> = 0
    <Phi_hy> = 0
    <LamType> = 0
    <LamFill> = 1
    <NStrands> = 0
    <WireD> = 0
    <BHPoints> = 0
  <EndBlock>
  <BeginBlock>
    <BlockName> = "u6"
    <Mu_x> = 0.015664246064106369
    <Mu_y> = 0.015664246064106369
    <H_c> = 0
    <H_cAngle> = 0
    <J_re> = 0
    <J_im> = 0
    <Sigma> = 0
    <d_lam> = 0
    <Phi_h> = 0
    <Phi_hx> = 0
    <Phi_hy> = 0
    <LamType> = 0
    <LamFill> = 1
    <NStrands> = 0
    <WireD> = 0
    <BHPoints> = 0
  <EndBlock>
  <BeginBlock>
    <BlockName> = "u7"
    <Mu_x> = 142.03015659052124
    <Mu_y> = 142.03015659052124
    <H_c> = 0
    <H_cAngle> = 0
    <J_re> = 0
    <J_im> = 0
    <Sigma> = 0
    <d_lam> = 0
    <Phi_h> = 0
    <Phi_hx> = 0
    <Phi_hy> = 0
    <LamType> = 0
    <LamFill> = 1
    <NStrands> = 0
    <WireD> = 0
    <BHPoints> = 0
  <EndBlock>
[CircuitProps]  = 3
  <BeginCircuit>
    <CircuitName> = "A"
    <TotalAmps_re> = 0
    <TotalAmps_im> = 0
    <CircuitType> = 1
  <EndCircuit>
  <BeginCircuit>
    <CircuitName> = "B"
    <TotalAmps_re> = 10
    <TotalAmps_im> = 0
    <CircuitType> = 1
  <EndCircuit>
  <BeginCircuit>
    <CircuitName> = "C"
    <TotalAmps_re> = 0
    <TotalAmps_im> = 0
    <CircuitType> = 1
  <EndCircuit>
[NumPoints] = 132
27.406363729278027	12.202099292274005	0	3
27.406363729278027	-12.202099292274005	0	3
39.686269665968858	5	0	3
36.541818305704034	16.269465723032006	0	3
39.686269665968858	-5	0	3
36.541818305704034	-16.269465723032006	0	3
49.749371855330999	5	0	3
43.301270189221938	24.999999999999996	0	3
49.749371855330999	-5	0	3
43.301270189221938	-24.999999999999996	0	3
51.96152422706632	29.999999999999996	0	3
51.96152422706632	-29.999999999999996	0	3
37.343217059888069	14.334717981812011	0	3
37.343217059888069	-14.334717981812011	0	3
46.679021324860088	17.918397477265014	0	3
46.679021324860088	-17.918397477265014	0	3
3.1358538980296107	29.8356568610482	0	3
24.270509831248425	17.633557568774194	0	3
15.51300781406224	36.869317712168794	0	3
4.1811385307061446	39.780875814730933	0	3
24.173261851906624	31.869317712168794	0	3
32.360679774997898	23.51141009169892	0	3
20.544558908743312	45.584219849035215	0	3
1.0658141036401503e-014	50	0	3
29.204812946587701	40.584219849035215	0	3
1.0658141036401503e-014	60	0	3
6.2573786016092381	39.507533623805507	0	3
31.085838458278836	25.172815641993491	0	3
7.8217232520115481	49.384417029756889	0	3
38.85729807284855	31.466019552491872	0	3
-24.270509831248418	17.633557568774201	0	3
-3.1358538980296	29.8356568610482	0	3
-24.173261851906616	31.869317712168801	0	3
-32.360679774997891	23.511410091698931	0	3
-15.513007814062227	36.869317712168801	0	3
-4.1811385307061322	39.780875814730933	0	3
-29.204812946587683	40.584219849035222	0	3
-43.301270189221924	25.000000000000014	0	3
-20.544558908743294	45.584219849035222	0	3
-51.961524227066306	30.000000000000014	0	3
-31.085838458278829	25.172815641993502	0	3
-6.2573786016092257	39.507533623805507	0	3
-38.857298072848536	31.466019552491879	0	3
-7.8217232520115321	49.384417029756882	0	3
-27.406363729278027	-12.202099292274001	0	3
-27.406363729278027	12.202099292274008	0	3
-39.686269665968858	-4.9999999999999956	0	3
-36.541818305704034	-16.269465723032003	0	3
-39.686269665968858	5.0000000000000044	0	3
-36.541818305704034	16.26946572303201	0	3
-49.749371855330999	-4.9999999999999938	0	3
-43.301270189221938	-24.999999999999993	0	3
-49.749371855330999	5.0000000000000062	0	3
-51.961524227066327	-29.999999999999989	0	3
-37.343217059888069	-14.334717981812005	0	3
-37.343217059888069	14.334717981812016	0	3
-46.679021324860088	-17.918397477265007	0	3
-46.679021324860088	17.918397477265021	0	3
-3.1358538980296213	-29.835656861048196	0	3
-24.270509831248432	-17.633557568774183	0	3
-15.513007814062256	-36.869317712168787	0	3
-4.1811385307061624	-39.780875814730926	0	3
-24.173261851906638	-31.869317712168783	0	3
-32.360679774997905	-23.511410091698906	0	3
-20.54455890874333	-45.5842198490352	0	3
-3.1974423109204508e-014	-50	0	3
-29.204812946587712	-40.5842198490352	0	3
-3.1974423109204508e-014	-60	0	3
-6.2573786016092559	-39.5075336238055	0	3
-31.08583845827885	-25.172815641993481	0	3
-7.8217232520115694	-49.384417029756882	0	3
-38.857298072848565	-31.466019552491851	0	3
24.270509831248425	-17.633557568774194	0	3
3.1358538980296107	-29.8356568610482	0	3
24.173261851906624	-31.869317712168794	0	3
32.360679774997898	-23.51141009169892	0	3
15.51300781406224	-36.869317712168794	0	3
4.1811385307061446	-39.780875814730933	0	3
29.204812946587701	-40.584219849035215	0	3
20.544558908743312	-45.584219849035215	0	3
31.085838458278836	-25.172815641993491	0	3
6.2573786016092381	-39.507533623805507	0	3
38.85729807284855	-31.466019552491872	0	3
7.8217232520115481	-49.384417029756889	0	3
4.2426406871192857	4.2426406871192848	0	4
4.2426406871192857	-4.2426406871192848	0	4
18.477590650225736	7.6536686473017959	0	4
24.944747377804742	10.332452673857425	0	4
18.477590650225736	-7.6536686473017959	0	4
24.944747377804742	-10.332452673857425	0	4
18.384776310850238	18.384776310850235	0	4
18.384776310850238	-18.384776310850235	0	4
24.020867845293456	9.9497692414923335	0	4
24.020867845293456	-9.9497692414923335	0	4
-4.2426406871192848	4.2426406871192857	0	4
-7.653668647301795	18.477590650225736	0	4
-10.332452673857423	24.944747377804742	0	4
7.6536686473017967	18.477590650225736	0	4
10.332452673857427	24.944747377804742	0	4
-18.384776310850235	18.384776310850238	0	4
-9.9497692414923318	24.020867845293456	0	4
9.9497692414923353	24.020867845293456	0	4
-4.2426406871192865	-4.2426406871192839	0	4
-18.477590650225736	-7.6536686473017932	0	4
-24.944747377804742	-10.332452673857421	0	4
-18.477590650225736	7.6536686473017985	0	4
-24.944747377804742	10.332452673857428	0	4
-18.384776310850242	-18.384776310850231	0	4
-24.020867845293456	-9.94976924149233	0	4
-24.020867845293456	9.9497692414923371	0	4
7.6536686473017923	-18.477590650225736	0	4
10.33245267385742	-24.944747377804745	0	4
-7.6536686473017994	-18.477590650225736	0	4
-10.33245267385743	-24.944747377804738	0	4
9.94976924149233	-24.020867845293459	0	4
-9.9497692414923371	-24.020867845293452	0	4
2.4999999999999751	129.95792588372632	0	0
2.4999999999999751	-129.95792588372598	0	0
2.4999999999999751	-131.8144676820649	0	0
2.4999999999999751	131.81446768206524	0	0
2.4999999999999751	-133.67100948040385	0	0
2.4999999999999751	133.67100948040419	0	0
2.4999999999999751	-135.52755127874281	0	0
2.4999999999999751	135.52755127874315	0	0
2.4999999999999751	-137.38409307708176	0	0
2.4999999999999751	137.3840930770821	0	0
2.4999999999999751	-139.24063487542068	0	0
2.4999999999999751	139.24063487542102	0	0
2.4999999999999751	-141.09717667375963	0	0
2.4999999999999751	141.09717667375998	0	0
2.4999999999999751	-142.95371847209859	0	0
2.4999999999999751	142.95371847209893	0	0
[NumSegments] = 52
0	3	-1	0	0	3
1	5	-1	0	0	3
2	6	-1	0	0	3
4	8	-1	0	0	3
12	14	-1	0	0	3
13	15	-1	0	0	3
16	19	-1	0	0	3
17	21	-1	0	0	3
18	22	-1	0	0	3
20	24	-1	0	0	3
26	28	-1	0	0	3
27	29	-1	0	0	3
30	33	-1	0	0	3
31	35	-1	0	0	3
32	36	-1	0	0	3
34	38	-1	0	0	3
40	42	-1	0	0	3
41	43	-1	0	0	3
44	47	-1	0	0	3
45	49	-1	0	0	3
46	50	-1	0	0	3
48	52	-1	0	0	3
54	56	-1	0	0	3
55	57	-1	0	0	3
58	61	-1	0	0	3
59	63	-1	0	0	3
60	64	-1	0	0	3
62	66	-1	0	0	3
68	70	-1	0	0	3
69	71	-1	0	0	3
72	75	-1	0	0	3
73	77	-1	0	0	3
74	78	-1	0	0	3
76	79	-1	0	0	3
80	82	-1	0	0	3
81	83	-1	0	0	3
86	92	-1	0	0	4
88	93	-1	0	0	4
92	87	-1	0	0	4
93	89	-1	0	0	4
95	100	-1	0	0	4
97	101	-1	0	0	4
100	96	-1	0	0	4
101	98	-1	0	0	4
103	108	-1	0	0	4
105	109	-1	0	0	4
108	104	-1	0	0	4
109	106	-1	0	0	4
110	114	-1	0	0	4
112	115	-1	0	0	4
114	111	-1	0	0	4
115	113	-1	0	0	4
[NumArcSegments] = 96
1	0	48	10	0	0	3	1
2	12	13.819244218541719	10	0	0	3	1
5	13	2.9999999999999978	10	0	0	3	1
6	14	15.26082952273322	10	0	0	3	1
9	15	8.9999999999999964	10	0	0	3	1
11	10	60	10	0	0	3	1
12	3	2.9999999999999978	10	0	0	3	1
13	4	13.819244218541719	10	0	0	3	1
14	7	8.9999999999999982	10	0	0	3	1
15	8	15.260829522733225	10	0	0	3	1
17	16	48	10	0	0	3	1
18	26	13.819244218541719	10	0	0	3	1
21	27	2.9999999999999978	10	0	0	3	1
22	28	15.26082952273322	10	0	0	3	1
7	29	8.9999999999999964	10	0	0	3	1
10	25	60	10	0	0	3	1
26	19	2.9999999999999978	10	0	0	3	1
27	20	13.819244218541719	10	0	0	3	1
28	23	8.9999999999999982	10	0	0	3	1
29	24	15.260829522733225	10	0	0	3	1
31	30	48	10	0	0	3	1
32	40	13.819244218541719	10	0	0	3	1
35	41	2.9999999999999978	10	0	0	3	1
36	42	15.26082952273322	10	0	0	3	1
23	43	8.9999999999999964	10	0	0	3	1
25	39	60	10	0	0	3	1
40	33	2.9999999999999978	10	0	0	3	1
41	34	13.819244218541719	10	0	0	3	1
42	37	8.9999999999999982	10	0	0	3	1
43	38	15.260829522733225	10	0	0	3	1
45	44	48	10	0	0	3	1
46	54	13.819244218541719	10	0	0	3	1
49	55	2.9999999999999978	10	0	0	3	1
50	56	15.26082952273322	10	0	0	3	1
37	57	8.9999999999999964	10	0	0	3	1
39	53	60	10	0	0	3	1
54	47	2.9999999999999978	10	0	0	3	1
55	48	13.819244218541719	10	0	0	3	1
56	51	8.9999999999999982	10	0	0	3	1
57	52	15.260829522733225	10	0	0	3	1
59	58	48	10	0	0	3	1
60	68	13.819244218541719	10	0	0	3	1
63	69	2.9999999999999978	10	0	0	3	1
64	70	15.26082952273322	10	0	0	3	1
51	71	8.9999999999999964	10	0	0	3	1
53	67	60	10	0	0	3	1
68	61	2.9999999999999978	10	0	0	3	1
69	62	13.819244218541719	10	0	0	3	1
70	65	8.9999999999999982	10	0	0	3	1
71	66	15.260829522733225	10	0	0	3	1
73	72	48	10	0	0	3	1
74	80	13.819244218541719	10	0	0	3	1
77	81	2.9999999999999978	10	0	0	3	1
78	82	15.26082952273322	10	0	0	3	1
65	83	8.9999999999999964	10	0	0	3	1
67	11	60	10	0	0	3	1
80	75	2.9999999999999978	10	0	0	3	1
81	76	13.819244218541719	10	0	0	3	1
82	9	8.9999999999999982	10	0	0	3	1
83	79	15.260829522733225	10	0	0	3	1
85	84	90	10	0	0	4	1
88	86	45	10	0	0	4	1
89	87	45	10	0	0	4	1
91	93	22.5	10	0	0	4	1
92	90	22.5	10	0	0	4	1
84	94	90	10	0	0	4	1
97	95	45	10	0	0	4	1
98	96	45	10	0	0	4	1
90	101	22.5	10	0	0	4	1
100	99	22.5	10	0	0	4	1
94	102	90	10	0	0	4	1
105	103	45	10	0	0	4	1
106	104	45	10	0	0	4	1
99	109	22.5	10	0	0	4	1
108	107	22.5	10	0	0	4	1
102	85	90	10	0	0	4	1
112	110	45	10	0	0	4	1
113	111	45	10	0	0	4	1
107	115	22.5	10	0	0	4	1
114	91	22.5	10	0	0	4	1
116	117	180	1	0	0	0	1
117	116	180	1	0	0	0	1
118	119	180	1	0	0	0	1
119	118	180	1	0	0	0	1
120	121	180	1	0	0	0	1
121	120	180	1	0	0	0	1
122	123	180	1	0	0	0	1
123	122	180	1	0	0	0	1
124	125	180	1	0	0	0	1
125	124	180	1	0	0	0	1
126	127	180	1	0	0	0	1
127	126	180	1	0	0	0	1
128	129	180	1	0	0	0	1
129	128	180	1	0	0	0	1
130	131	180	1	1	0	0	1
131	130	180	1	1	0	0	1
[NumHoles] = 0
[NumBlockLabels] = 28
55	0	4	-1	0	0	3	1	0
42.286167935365881	15.390906449655093	3	-1	1	0	3	100	0
42.286167935365881	-15.390906449655093	3	-1	1	0	3	-100	0
7.8141679950118688	44.31634888554936	3	-1	2	0	3	100	0
34.47199994035401	28.925442435894265	3	-1	2	0	3	-100	0
-34.471999940354003	28.925442435894276	3	-1	3	0	3	100	0
-7.8141679950118634	44.31634888554936	3	-1	3	0	3	-100	0
-42.286167935365881	-15.390906449655089	3	-1	1	0	3	100	0
-42.286167935365874	15.3909064496551	3	-1	1	0	3	-100	0
-7.8141679950118652	-44.31634888554936	3	-1	2	0	3	100	0
-34.47199994035401	-28.925442435894265	3	-1	2	0	3	-100	0
34.471999940354003	-28.925442435894283	3	-1	3	0	3	100	0
7.8141679950118483	-44.316348885549367	3	-1	3	0	3	-100	0
13	0	4	-1	0	0	4	1	0
23.5	0	5	-1	0	0	4	1	0
1.43895998899814e-015	23.5	5	-1	0	-90	4	1	0
-23.5	2.8779199779962799e-015	5	-1	0	180	4	1	0
-4.3168799669944195e-015	-23.5	5	-1	0	90	4	1	0
3	0	1	-1	0	0	0	1	0
65	0	1	-1	0	0	0	1	0
28.5	0	1	-1	0	0	0	1	0
130.87125521262465	25.534630277841597	6	-1	0	0	0	1	0
125.1382992646989	50.798446821808831	7	-1	0	0	0	1	0
114.41521147340555	74.779353564750579	8	-1	0	0	0	1	0
98.988837194387571	96.488837194387742	9	-1	0	0	0	1	0
79.342232283778003	115.00252765198243	10	-1	0	0	0	1	0
56.140317972679071	129.4991831396473	11	-1	0	0	0	1	0
30.207790301487471	139.29646842220993	12	-1	0	0	0	1	0
