[Format]      =  4.0
[Frequency]   =  0
[Precision]   =  1e-008
[MinAngle]    =  30
[DoSmartMesh] =  1
[Depth]       =  50
[LengthUnits] =  millimeters
[ProblemType] =  planar
[Coordinates] =  cartesian
[ACSolver]    =  0
[PrevType]    =  0
[PrevSoln]    =  ""
[Comment]     =  "Add comments here."
[PointProps]   = 0
[BdryProps]   = 0
[BlockProps]  = 4
  <BeginBlock>
    <BlockName> = "Air"
    <Mu_x> = 1
    <Mu_y> = 1
    <H_c> = 0
    <H_cAngle> = 0
    <J_re> = 0
    <J_im> = 0
    <Sigma> = 0
    <d_lam> = 0
    <Phi_h> = 0
    <Phi_hx> = 0
    <Phi_hy> = 0
    <LamType> = 0
    <LamFill> = 1
    <NStrands> = 0
    <WireD> = 0
    <BHPoints> = 0
  <EndBlock>
  <BeginBlock>
    <BlockName> = "18 AWG"
    <Mu_x> = 1
    <Mu_y> = 1
    <H_c> = 0
    <H_cAngle> = 0
    <J_re> = 0
    <J_im> = 0
    <Sigma> = 58
    <d_lam> = 0
    <Phi_h> = 0
    <Phi_hx> = 0
    <Phi_hy> = 0
    <LamType> = 3
    <LamFill> = 1
    <NStrands> = 1
    <WireD> = 1.0239652968433499
    <BHPoints> = 0
  <EndBlock>
  <BeginBlock>
    <BlockName> = "NdFeB 32 MGOe"
    <Mu_x> = 1.0449999999999999
    <Mu_y> = 1.0449999999999999
    <H_c> = 883310
    <H_cAngle> = 0
    <J_re> = 0
    <J_im> = 0
    <Sigma> = 0.69399999999999995
    <d_lam> = 0
    <Phi_h> = 0
    <Phi_hx> = 0
    <Phi_hy> = 0
    <LamType> = 0
    <LamFill> = 1
    <NStrands> = 0
    <WireD> = 0
    <BHPoints> = 0
  <EndBlock>
  <BeginBlock>
    <BlockName> = "M-27 Steel"
    <Mu_x> = 12138
    <Mu_y> = 12138
    <H_c> = 0
    <H_cAngle> = 0
    <J_re> = 0
    <J_im> = 0
    <Sigma> = 2
    <d_lam> = 0.63500000000000001
    <Phi_h> = 0
    <Phi_hx> = 0
    <Phi_hy> = 0
    <LamType> = 0
    <LamFill> = 0.97999999999999998
    <NStrands> = 0
    <WireD> = 0
    <BHPoints> = 47
      0	0
      0.050000000000000003	17.059828
      0.10000000000000001	25.634971
      0.14999999999999999	31.338353999999999
      0.20000000000000001	35.778996999999997
      0.25	39.602124000000003
      0.29999999999999999	43.123142999999999
      0.34999999999999998	46.520439000000003
      0.40000000000000002	49.908177000000002
      0.45000000000000001	53.368284000000003
      0.5	56.966318000000001
      0.55000000000000004	60.760271000000003
      0.59999999999999998	64.806105000000002
      0.65000000000000002	69.161803000000006
      0.69999999999999996	73.890922000000003
      0.75	79.066315000000003
      0.80000000000000004	84.774675999999999
      0.84999999999999998	91.122721999999996
      0.90000000000000002	98.246298999999993
      0.94999999999999996	106.324591
      1	115.60341699999999
      1.05	126.435124
      1.1000000000000001	139.34975900000001
      1.1499999999999999	155.187082
      1.2	175.350538
      1.25	202.312017
      1.3	240.640455
      1.3500000000000001	299.11802699999998
      1.3999999999999999	394.99338599999999
      1.45	561.72617700000001
      1.5	859.32876299999998
      1.55	1375.4668879999999
      1.6000000000000001	2191.2469139999998
      1.6499999999999999	3328.145908
      1.7	4760.5061720000003
      1.75	6535.3394490000001
      1.8	8788.9706569999998
      1.8500000000000001	11670.804346999999
      1.8999999999999999	15385.186211
      1.95	20246.553030999999
      2	26995.131141000002
      2.0499999999999998	38724.496369
      2.1000000000000001	64917.284463000004
      2.1499999999999999	101489.30933800001
      2.2000000000000002	137202.82896099999
      2.25	176835.706764
      2.2999999999999998	216374.28360900001
  <EndBlock>
[CircuitProps]  = 3
  <BeginCircuit>
    <CircuitName> = "A"
    <TotalAmps_re> = 0
    <TotalAmps_im> = 0
    <CircuitType> = 1
  <EndCircuit>
  <BeginCircuit>
    <CircuitName> = "B"
    <TotalAmps_re> = 0
    <TotalAmps_im> = 0
    <CircuitType> = 1
  <EndCircuit>
  <BeginCircuit>
    <CircuitName> = "C"
    <TotalAmps_re> = 0
    <TotalAmps_im> = 0
    <CircuitType> = 1
  <EndCircuit>
[NumPoints] = 26
27.406363729278027	12.202099292274005	0	2
27.406363729278027	-12.202099292274005	0	2
37.252516693506763	7.5000000000000009	0	2
34.71472739041883	15.455992436880406	0	2
37.252516693506763	-7.5000000000000009	0	2
34.71472739041883	-15.455992436880406	0	2
67.585131500944797	7.5	0	2
58.889727457341834	33.999999999999993	0	2
67.585131500944797	-7.5	0	2
58.889727457341834	-33.999999999999993	0	2
67.549981495186216	38.999999999999993	0	2
67.549981495186216	-38.999999999999993	0	2
36.140147619215831	11.742645786248001	0	2
36.140147619215831	-11.742645786248001	0	2
64.671843108070433	21.013155617496423	0	2
64.671843108070433	-21.013155617496423	0	2
4.6193976625564339	1.913417161825449	0	1
4.6193976625564339	-1.913417161825449	0	1
14.265847744427303	4.6352549156242109	0	1
14.265847744427303	-4.6352549156242109	0	1
23.776412907378838	7.7254248593736845	0	1
23.776412907378838	-7.7254248593736845	0	1
19.021130325903069	6.1803398874989481	0	1
18.477590650225736	7.6536686473017959	0	1
19.021130325903069	-6.1803398874989481	0	1
18.477590650225736	-7.6536686473017959	0	1
[NumSegments] = 10
0	3	-1	0	0	2
1	5	-1	0	0	2
2	6	-1	0	0	2
4	8	-1	0	0	2
12	14	-1	0	0	2
13	15	-1	0	0	2
18	22	-1	0	0	1
19	24	-1	0	0	1
22	20	-1	0	0	1
24	21	-1	0	0	1
[NumArcSegments] = 15
1	0	48	10	0	0	2	1
2	12	6.6168865175649678	10	0	0	2	1
5	13	5.9999999999999973	10	0	0	2	1
6	14	11.667729565469815	10	0	0	2	1
9	15	11.999999999999989	10	0	0	2	1
11	10	60	10	0	0	2	1
12	3	5.9999999999999973	10	0	0	2	1
13	4	6.6168865175649652	10	0	0	2	1
14	7	11.999999999999995	10	0	0	2	1
15	8	11.667729565469815	10	0	0	2	1
17	16	45	10	0	0	1	1
19	18	36	10	0	0	1	1
21	20	36	10	0	0	1	1
22	23	4.5	10	0	0	1	1
25	24	4.5	10	0	0	1	1
[NumHoles] = 0
[NumBlockLabels] = 1
20	0	3	-1	0	0	1	1	0
