[Format]      =  4.0
[Frequency]   =  0
[Precision]   =  1e-008
[MinAngle]    =  30
[DoSmartMesh] =  1
[Depth]       =  50
[LengthUnits] =  millimeters
[ProblemType] =  planar
[Coordinates] =  cartesian
[ACSolver]    =  0
[PrevType]    =  0
[PrevSoln]    =  ""
[Comment]     =  "Add comments here."
[PointProps]   = 0
[BdryProps]   = 0
[BlockProps]  = 0
[CircuitProps]  = 0
[NumPoints] = 78
28.007412794916053	10.751038486359008	0	2
28.007412794916053	-10.751038486359008	0	2
37.252516693506763	7.5000000000000009	0	2
35.476056206893666	13.61798208272141	0	2
37.252516693506763	-7.5000000000000009	0	2
35.476056206893666	-13.61798208272141	0	2
67.585131500944797	7.5	0	2
58.889727457341834	33.999999999999993	0	2
67.585131500944797	-7.5	0	2
58.889727457341834	-33.999999999999993	0	2
33.858247919157982	17.251638990102776	0	2
33.858247919157982	-17.251638990102776	0	2
60.588443644809018	30.871353982289179	0	2
60.588443644809018	-30.871353982289179	0	2
4.6930339512069317	29.630650217854132	0	2
23.314378843709129	18.879611731495125	0	2
12.131067818370095	36.011625811480734	0	2
5.9445096715287775	37.532156942615231	0	2
25.121448875136675	28.511625811480734	0	2
29.531546535364896	23.914174859893819	0	2
27.297375222089116	62.280440797930098	0	2
1.7763568394002505e-014	68	0	2
40.287756278855696	54.780440797930098	0	2
1.9887663372318727	37.947922320673811	0	2
31.869481581926117	20.696283330571028	0	2
3.5588450245201955	67.906808363311029	0	2
57.029598620288837	37.035454381021836	0	2
-23.314378843709122	18.879611731495128	0	2
-4.6930339512069192	29.630650217854129	0	2
-25.121448875136664	28.511625811480741	0	2
-29.531546535364889	23.91417485989383	0	2
-12.131067818370084	36.011625811480741	0	2
-5.9445096715287651	37.532156942615231	0	2
-40.287756278855674	54.780440797930105	0	2
-58.889727457341813	34.000000000000014	0	2
-27.297375222089094	62.280440797930105	0	2
-31.869481581926109	20.696283330571038	0	2
-1.9887663372318602	37.947922320673811	0	2
-57.029598620288823	37.035454381021857	0	2
-3.5588450245201706	67.906808363311029	0	2
-28.007412794916053	-10.751038486359004	0	2
-28.007412794916053	10.751038486359011	0	2
-37.252516693506763	-7.4999999999999964	0	2
-35.476056206893666	-13.617982082721406	0	2
-37.252516693506763	7.5000000000000053	0	2
-35.476056206893666	13.617982082721413	0	2
-67.585131500944797	-7.499999999999992	0	2
-58.889727457341841	-33.999999999999986	0	2
-67.585131500944797	7.500000000000008	0	2
-33.858247919157982	-17.251638990102773	0	2
-33.858247919157982	17.25163899010278	0	2
-60.588443644809026	-30.871353982289172	0	2
-60.588443644809011	30.871353982289186	0	2
-4.6930339512069423	-29.630650217854129	0	2
-23.314378843709136	-18.879611731495114	0	2
-12.131067818370111	-36.011625811480734	0	2
-5.9445096715287917	-37.532156942615231	0	2
-25.121448875136686	-28.511625811480723	0	2
-29.531546535364903	-23.914174859893805	0	2
-27.297375222089137	-62.280440797930083	0	2
-4.2632564145606011e-014	-68	0	2
-40.287756278855717	-54.780440797930083	0	2
-1.9887663372318869	-37.947922320673811	0	2
-31.869481581926124	-20.696283330571017	0	2
-3.5588450245202203	-67.906808363311029	0	2
-57.029598620288851	-37.035454381021815	0	2
23.314378843709129	-18.879611731495125	0	2
4.6930339512069317	-29.630650217854132	0	2
25.121448875136675	-28.511625811480734	0	2
29.531546535364896	-23.914174859893819	0	2
12.131067818370095	-36.011625811480734	0	2
5.9445096715287775	-37.532156942615231	0	2
40.287756278855696	-54.780440797930098	0	2
27.297375222089116	-62.280440797930098	0	2
31.869481581926117	-20.696283330571028	0	2
1.9887663372318727	-37.947922320673811	0	2
57.029598620288837	-37.035454381021836	0	2
3.5588450245201955	-67.906808363311029	0	2
[NumSegments] = 36
0	3	-1	0	0	2
1	5	-1	0	0	2
2	6	-1	0	0	2
4	8	-1	0	0	2
10	12	-1	0	0	2
11	13	-1	0	0	2
14	17	-1	0	0	2
15	19	-1	0	0	2
16	20	-1	0	0	2
18	22	-1	0	0	2
23	25	-1	0	0	2
24	26	-1	0	0	2
27	30	-1	0	0	2
28	32	-1	0	0	2
29	33	-1	0	0	2
31	35	-1	0	0	2
36	38	-1	0	0	2
37	39	-1	0	0	2
40	43	-1	0	0	2
41	45	-1	0	0	2
42	46	-1	0	0	2
44	48	-1	0	0	2
49	51	-1	0	0	2
50	52	-1	0	0	2
53	56	-1	0	0	2
54	58	-1	0	0	2
55	59	-1	0	0	2
57	61	-1	0	0	2
62	64	-1	0	0	2
63	65	-1	0	0	2
66	69	-1	0	0	2
67	71	-1	0	0	2
68	72	-1	0	0	2
70	73	-1	0	0	2
74	76	-1	0	0	2
75	77	-1	0	0	2
[NumArcSegments] = 53
1	0	42	10	0	0	2	10
2	3	9.6168865175649625	10	0	0	2	10
5	4	9.6168865175649625	10	0	0	2	10
6	12	20.667729565469813	10	0	0	2	10
9	13	2.9999999999999942	10	0	0	2	10
12	7	3.0000000000000004	10	0	0	2	10
13	8	20.667729565469813	10	0	0	2	10
3	10	6	10	0	0	2	10
11	5	6	10	0	0	2	10
15	14	42	10	0	0	2	10
16	17	9.6168865175649625	10	0	0	2	10
19	18	9.6168865175649625	10	0	0	2	10
20	25	20.667729565469813	10	0	0	2	10
25	21	3.0000000000000004	10	0	0	2	10
26	22	20.667729565469813	10	0	0	2	10
17	23	6	10	0	0	2	10
24	19	6	10	0	0	2	10
28	27	42	10	0	0	2	10
29	30	9.6168865175649625	10	0	0	2	10
32	31	9.6168865175649625	10	0	0	2	10
33	38	20.667729565469813	10	0	0	2	10
21	39	2.9999999999999942	10	0	0	2	10
38	34	3.0000000000000004	10	0	0	2	10
39	35	20.667729565469813	10	0	0	2	10
30	36	6	10	0	0	2	10
37	32	6	10	0	0	2	10
41	40	42	10	0	0	2	10
42	43	9.6168865175649625	10	0	0	2	10
45	44	9.6168865175649625	10	0	0	2	10
46	51	20.667729565469813	10	0	0	2	10
34	52	2.9999999999999942	10	0	0	2	10
51	47	3.0000000000000004	10	0	0	2	10
52	48	20.667729565469813	10	0	0	2	10
43	49	6	10	0	0	2	10
50	45	6	10	0	0	2	10
54	53	42	10	0	0	2	10
55	56	9.6168865175649625	10	0	0	2	10
58	57	9.6168865175649625	10	0	0	2	10
59	64	20.667729565469813	10	0	0	2	10
47	65	2.9999999999999942	10	0	0	2	10
64	60	3.0000000000000004	10	0	0	2	10
65	61	20.667729565469813	10	0	0	2	10
56	62	6	10	0	0	2	10
63	58	6	10	0	0	2	10
67	66	42	10	0	0	2	10
68	69	9.6168865175649625	10	0	0	2	10
71	70	9.6168865175649625	10	0	0	2	10
72	76	20.667729565469813	10	0	0	2	10
60	77	2.9999999999999942	10	0	0	2	10
76	9	3.0000000000000004	10	0	0	2	10
77	73	20.667729565469813	10	0	0	2	10
69	74	6	10	0	0	2	10
75	71	6	10	0	0	2	10
[NumHoles] = 0
[NumBlockLabels] = 1
-1.8999999999999999	9.4000000000000004	0	-1	0	0	0	1	0
