[Format]      =  4.0
[Frequency]   =  0
[Precision]   =  1e-008
[MinAngle]    =  30
[DoSmartMesh] =  1
[Depth]       =  50
[LengthUnits] =  millimeters
[ProblemType] =  planar
[Coordinates] =  cartesian
[ACSolver]    =  0
[PrevType]    =  0
[PrevSoln]    =  ""
[Comment]     =  "Add comments here."
[PointProps]   = 0
[BdryProps]   = 0
[BlockProps]  = 1
  <BeginBlock>
    <BlockName> = "Air"
    <Mu_x> = 1
    <Mu_y> = 1
    <H_c> = 0
    <H_cAngle> = 0
    <J_re> = 0
    <J_im> = 0
    <Sigma> = 0
    <d_lam> = 0
    <Phi_h> = 0
    <Phi_hx> = 0
    <Phi_hy> = 0
    <LamType> = 0
    <LamFill> = 1
    <NStrands> = 0
    <WireD> = 0
    <BHPoints> = 0
  <EndBlock>
[CircuitProps]  = 0
[NumPoints] = 84
27.406363729278027	12.202099292274005	0	4
27.406363729278027	-12.202099292274005	0	4
39.686269665968858	5	0	4
36.541818305704034	16.269465723032006	0	4
39.686269665968858	-5	0	4
36.541818305704034	-16.269465723032006	0	4
49.749371855330999	5	0	4
43.301270189221938	24.999999999999996	0	4
49.749371855330999	-5	0	4
43.301270189221938	-24.999999999999996	0	4
51.96152422706632	29.999999999999996	0	4
51.96152422706632	-29.999999999999996	0	4
37.343217059888069	14.334717981812011	0	4
37.343217059888069	-14.334717981812011	0	4
46.679021324860088	17.918397477265014	0	4
46.679021324860088	-17.918397477265014	0	4
3.1358538980296107	29.8356568610482	0	4
24.270509831248425	17.633557568774194	0	4
15.51300781406224	36.869317712168794	0	4
4.1811385307061446	39.780875814730933	0	4
24.173261851906624	31.869317712168794	0	4
32.360679774997898	23.51141009169892	0	4
20.544558908743312	45.584219849035215	0	4
1.0658141036401503e-014	50	0	4
29.204812946587701	40.584219849035215	0	4
1.0658141036401503e-014	60	0	4
6.2573786016092381	39.507533623805507	0	4
31.085838458278836	25.172815641993491	0	4
7.8217232520115481	49.384417029756889	0	4
38.85729807284855	31.466019552491872	0	4
-24.270509831248418	17.633557568774201	0	4
-3.1358538980296	29.8356568610482	0	4
-24.173261851906616	31.869317712168801	0	4
-32.360679774997891	23.511410091698931	0	4
-15.513007814062227	36.869317712168801	0	4
-4.1811385307061322	39.780875814730933	0	4
-29.204812946587683	40.584219849035222	0	4
-43.301270189221924	25.000000000000014	0	4
-20.544558908743294	45.584219849035222	0	4
-51.961524227066306	30.000000000000014	0	4
-31.085838458278829	25.172815641993502	0	4
-6.2573786016092257	39.507533623805507	0	4
-38.857298072848536	31.466019552491879	0	4
-7.8217232520115321	49.384417029756882	0	4
-27.406363729278027	-12.202099292274001	0	4
-27.406363729278027	12.202099292274008	0	4
-39.686269665968858	-4.9999999999999956	0	4
-36.541818305704034	-16.269465723032003	0	4
-39.686269665968858	5.0000000000000044	0	4
-36.541818305704034	16.26946572303201	0	4
-49.749371855330999	-4.9999999999999938	0	4
-43.301270189221938	-24.999999999999993	0	4
-49.749371855330999	5.0000000000000062	0	4
-51.961524227066327	-29.999999999999989	0	4
-37.343217059888069	-14.334717981812005	0	4
-37.343217059888069	14.334717981812016	0	4
-46.679021324860088	-17.918397477265007	0	4
-46.679021324860088	17.918397477265021	0	4
-3.1358538980296213	-29.835656861048196	0	4
-24.270509831248432	-17.633557568774183	0	4
-15.513007814062256	-36.869317712168787	0	4
-4.1811385307061624	-39.780875814730926	0	4
-24.173261851906638	-31.869317712168783	0	4
-32.360679774997905	-23.511410091698906	0	4
-20.54455890874333	-45.5842198490352	0	4
-3.1974423109204508e-014	-50	0	4
-29.204812946587712	-40.5842198490352	0	4
-3.1974423109204508e-014	-60	0	4
-6.2573786016092559	-39.5075336238055	0	4
-31.08583845827885	-25.172815641993481	0	4
-7.8217232520115694	-49.384417029756882	0	4
-38.857298072848565	-31.466019552491851	0	4
24.270509831248425	-17.633557568774194	0	4
3.1358538980296107	-29.8356568610482	0	4
24.173261851906624	-31.869317712168794	0	4
32.360679774997898	-23.51141009169892	0	4
15.51300781406224	-36.869317712168794	0	4
4.1811385307061446	-39.780875814730933	0	4
29.204812946587701	-40.584219849035215	0	4
20.544558908743312	-45.584219849035215	0	4
31.085838458278836	-25.172815641993491	0	4
6.2573786016092381	-39.507533623805507	0	4
38.85729807284855	-31.466019552491872	0	4
7.8217232520115481	-49.384417029756889	0	4
[NumSegments] = 36
0	3	-1	0	0	4
1	5	-1	0	0	4
2	6	-1	0	0	4
4	8	-1	0	0	4
12	14	-1	0	0	4
13	15	-1	0	0	4
16	19	-1	0	0	4
17	21	-1	0	0	4
18	22	-1	0	0	4
20	24	-1	0	0	4
26	28	-1	0	0	4
27	29	-1	0	0	4
30	33	-1	0	0	4
31	35	-1	0	0	4
32	36	-1	0	0	4
34	38	-1	0	0	4
40	42	-1	0	0	4
41	43	-1	0	0	4
44	47	-1	0	0	4
45	49	-1	0	0	4
46	50	-1	0	0	4
48	52	-1	0	0	4
54	56	-1	0	0	4
55	57	-1	0	0	4
58	61	-1	0	0	4
59	63	-1	0	0	4
60	64	-1	0	0	4
62	66	-1	0	0	4
68	70	-1	0	0	4
69	71	-1	0	0	4
72	75	-1	0	0	4
73	77	-1	0	0	4
74	78	-1	0	0	4
76	79	-1	0	0	4
80	82	-1	0	0	4
81	83	-1	0	0	4
[NumArcSegments] = 60
1	0	48	10	0	0	4	1
2	12	13.819244218541719	10	0	0	4	1
5	13	2.9999999999999978	10	0	0	4	1
6	14	15.26082952273322	10	0	0	4	1
9	15	8.9999999999999964	10	0	0	4	1
11	10	60	10	0	0	4	1
12	3	2.9999999999999978	10	0	0	4	1
13	4	13.819244218541719	10	0	0	4	1
14	7	8.9999999999999982	10	0	0	4	1
15	8	15.260829522733225	10	0	0	4	1
17	16	48	10	0	0	4	1
18	26	13.819244218541719	10	0	0	4	1
21	27	2.9999999999999978	10	0	0	4	1
22	28	15.26082952273322	10	0	0	4	1
7	29	8.9999999999999964	10	0	0	4	1
10	25	60	10	0	0	4	1
26	19	2.9999999999999978	10	0	0	4	1
27	20	13.819244218541719	10	0	0	4	1
28	23	8.9999999999999982	10	0	0	4	1
29	24	15.260829522733225	10	0	0	4	1
31	30	48	10	0	0	4	1
32	40	13.819244218541719	10	0	0	4	1
35	41	2.9999999999999978	10	0	0	4	1
36	42	15.26082952273322	10	0	0	4	1
23	43	8.9999999999999964	10	0	0	4	1
25	39	60	10	0	0	4	1
40	33	2.9999999999999978	10	0	0	4	1
41	34	13.819244218541719	10	0	0	4	1
42	37	8.9999999999999982	10	0	0	4	1
43	38	15.260829522733225	10	0	0	4	1
45	44	48	10	0	0	4	1
46	54	13.819244218541719	10	0	0	4	1
49	55	2.9999999999999978	10	0	0	4	1
50	56	15.26082952273322	10	0	0	4	1
37	57	8.9999999999999964	10	0	0	4	1
39	53	60	10	0	0	4	1
54	47	2.9999999999999978	10	0	0	4	1
55	48	13.819244218541719	10	0	0	4	1
56	51	8.9999999999999982	10	0	0	4	1
57	52	15.260829522733225	10	0	0	4	1
59	58	48	10	0	0	4	1
60	68	13.819244218541719	10	0	0	4	1
63	69	2.9999999999999978	10	0	0	4	1
64	70	15.26082952273322	10	0	0	4	1
51	71	8.9999999999999964	10	0	0	4	1
53	67	60	10	0	0	4	1
68	61	2.9999999999999978	10	0	0	4	1
69	62	13.819244218541719	10	0	0	4	1
70	65	8.9999999999999982	10	0	0	4	1
71	66	15.260829522733225	10	0	0	4	1
73	72	48	10	0	0	4	1
74	80	13.819244218541719	10	0	0	4	1
77	81	2.9999999999999978	10	0	0	4	1
78	82	15.26082952273322	10	0	0	4	1
65	83	8.9999999999999964	10	0	0	4	1
67	11	60	10	0	0	4	1
80	75	2.9999999999999978	10	0	0	4	1
81	76	13.819244218541719	10	0	0	4	1
82	9	8.9999999999999982	10	0	0	4	1
83	79	15.260829522733225	10	0	0	4	1
[NumHoles] = 0
[NumBlockLabels] = 12
42.286167935365881	15.390906449655093	1	-1	0	0	4	100	0
42.286167935365881	-15.390906449655093	1	-1	0	0	4	-100	0
7.8141679950118688	44.31634888554936	1	-1	0	0	4	100	0
34.47199994035401	28.925442435894265	1	-1	0	0	4	-100	0
-34.471999940354003	28.925442435894276	1	-1	0	0	4	100	0
-7.8141679950118634	44.31634888554936	1	-1	0	0	4	-100	0
-42.286167935365881	-15.390906449655089	1	-1	0	0	4	100	0
-42.286167935365874	15.3909064496551	1	-1	0	0	4	-100	0
-7.8141679950118652	-44.31634888554936	1	-1	0	0	4	100	0
-34.47199994035401	-28.925442435894265	1	-1	0	0	4	-100	0
34.471999940354003	-28.925442435894283	1	-1	0	0	4	100	0
7.8141679950118483	-44.316348885549367	1	-1	0	0	4	-100	0
