[Format]      =  4.0
[Frequency]   =  0
[Precision]   =  1e-008
[MinAngle]    =  30
[DoSmartMesh] =  1
[Depth]       =  50
[LengthUnits] =  millimeters
[ProblemType] =  planar
[Coordinates] =  cartesian
[ACSolver]    =  0
[PrevType]    =  0
[PrevSoln]    =  ""
[Comment]     =  "Add comments here."
[PointProps]   = 0
[BdryProps]   = 1
  <BeginBdry>
    <BdryName> = "A=0"
    <BdryType> = 0
    <A_0> = 0
    <A_1> = 0
    <A_2> = 0
    <Phi> = 0
    <c0> = 0
    <c0i> = 0
    <c1> = 0
    <c1i> = 0
    <Mu_ssd> = 0
    <Sigma_ssd> = 0
    <innerangle> = 0
    <outerangle> = 0
  <EndBdry>
[BlockProps]  = 10
  <BeginBlock>
    <BlockName> = "Air"
    <Mu_x> = 1
    <Mu_y> = 1
    <H_c> = 0
    <H_cAngle> = 0
    <J_re> = 0
    <J_im> = 0
    <Sigma> = 0
    <d_lam> = 0
    <Phi_h> = 0
    <Phi_hx> = 0
    <Phi_hy> = 0
    <LamType> = 0
    <LamFill> = 1
    <NStrands> = 0
    <WireD> = 0
    <BHPoints> = 0
  <EndBlock>
  <BeginBlock>
    <BlockName> = "M-27 Steel"
    <Mu_x> = 12138
    <Mu_y> = 12138
    <H_c> = 0
    <H_cAngle> = 0
    <J_re> = 0
    <J_im> = 0
    <Sigma> = 2
    <d_lam> = 0.63500000000000001
    <Phi_h> = 0
    <Phi_hx> = 0
    <Phi_hy> = 0
    <LamType> = 0
    <LamFill> = 0.97999999999999998
    <NStrands> = 0
    <WireD> = 0
    <BHPoints> = 47
      0	0
      0.050000000000000003	17.059828
      0.10000000000000001	25.634971
      0.14999999999999999	31.338353999999999
      0.20000000000000001	35.778996999999997
      0.25	39.602124000000003
      0.29999999999999999	43.123142999999999
      0.34999999999999998	46.520439000000003
      0.40000000000000002	49.908177000000002
      0.45000000000000001	53.368284000000003
      0.5	56.966318000000001
      0.55000000000000004	60.760271000000003
      0.59999999999999998	64.806105000000002
      0.65000000000000002	69.161803000000006
      0.69999999999999996	73.890922000000003
      0.75	79.066315000000003
      0.80000000000000004	84.774675999999999
      0.84999999999999998	91.122721999999996
      0.90000000000000002	98.246298999999993
      0.94999999999999996	106.324591
      1	115.60341699999999
      1.05	126.435124
      1.1000000000000001	139.34975900000001
      1.1499999999999999	155.187082
      1.2	175.350538
      1.25	202.312017
      1.3	240.640455
      1.3500000000000001	299.11802699999998
      1.3999999999999999	394.99338599999999
      1.45	561.72617700000001
      1.5	859.32876299999998
      1.55	1375.4668879999999
      1.6000000000000001	2191.2469139999998
      1.6499999999999999	3328.145908
      1.7	4760.5061720000003
      1.75	6535.3394490000001
      1.8	8788.9706569999998
      1.8500000000000001	11670.804346999999
      1.8999999999999999	15385.186211
      1.95	20246.553030999999
      2	26995.131141000002
      2.0499999999999998	38724.496369
      2.1000000000000001	64917.284463000004
      2.1499999999999999	101489.30933800001
      2.2000000000000002	137202.82896099999
      2.25	176835.706764
      2.2999999999999998	216374.28360900001
  <EndBlock>
  <BeginBlock>
    <BlockName> = "18 AWG"
    <Mu_x> = 1
    <Mu_y> = 1
    <H_c> = 0
    <H_cAngle> = 0
    <J_re> = 0
    <J_im> = 0
    <Sigma> = 58
    <d_lam> = 0
    <Phi_h> = 0
    <Phi_hx> = 0
    <Phi_hy> = 0
    <LamType> = 3
    <LamFill> = 1
    <NStrands> = 1
    <WireD> = 1.0239652968433499
    <BHPoints> = 0
  <EndBlock>
  <BeginBlock>
    <BlockName> = "u1"
    <Mu_x> = 2.6498996896116669
    <Mu_y> = 2.6498996896116669
    <H_c> = 0
    <H_cAngle> = 0
    <J_re> = 0
    <J_im> = 0
    <Sigma> = 0
    <d_lam> = 0
    <Phi_h> = 0
    <Phi_hx> = 0
    <Phi_hy> = 0
    <LamType> = 0
    <LamFill> = 1
    <NStrands> = 0
    <WireD> = 0
    <BHPoints> = 0
  <EndBlock>
  <BeginBlock>
    <BlockName> = "u2"
    <Mu_x> = 0.12953316809300527
    <Mu_y> = 0.12953316809300527
    <H_c> = 0
    <H_cAngle> = 0
    <J_re> = 0
    <J_im> = 0
    <Sigma> = 0
    <d_lam> = 0
    <Phi_h> = 0
    <Phi_hx> = 0
    <Phi_hy> = 0
    <LamType> = 0
    <LamFill> = 1
    <NStrands> = 0
    <WireD> = 0
    <BHPoints> = 0
  <EndBlock>
  <BeginBlock>
    <BlockName> = "u3"
    <Mu_x> = 14.398967120915913
    <Mu_y> = 14.398967120915913
    <H_c> = 0
    <H_cAngle> = 0
    <J_re> = 0
    <J_im> = 0
    <Sigma> = 0
    <d_lam> = 0
    <Phi_h> = 0
    <Phi_hx> = 0
    <Phi_hy> = 0
    <LamType> = 0
    <LamFill> = 1
    <NStrands> = 0
    <WireD> = 0
    <BHPoints> = 0
  <EndBlock>
  <BeginBlock>
    <BlockName> = "u4"
    <Mu_x> = 0.042882574356338271
    <Mu_y> = 0.042882574356338271
    <H_c> = 0
    <H_cAngle> = 0
    <J_re> = 0
    <J_im> = 0
    <Sigma> = 0
    <d_lam> = 0
    <Phi_h> = 0
    <Phi_hx> = 0
    <Phi_hy> = 0
    <LamType> = 0
    <LamFill> = 1
    <NStrands> = 0
    <WireD> = 0
    <BHPoints> = 0
  <EndBlock>
  <BeginBlock>
    <BlockName> = "u5"
    <Mu_x> = 37.197476986533054
    <Mu_y> = 37.197476986533054
    <H_c> = 0
    <H_cAngle> = 0
    <J_re> = 0
    <J_im> = 0
    <Sigma> = 0
    <d_lam> = 0
    <Phi_h> = 0
    <Phi_hx> = 0
    <Phi_hy> = 0
    <LamType> = 0
    <LamFill> = 1
    <NStrands> = 0
    <WireD> = 0
    <BHPoints> = 0
  <EndBlock>
  <BeginBlock>
    <BlockName> = "u6"
    <Mu_x> = 0.015664246064106369
    <Mu_y> = 0.015664246064106369
    <H_c> = 0
    <H_cAngle> = 0
    <J_re> = 0
    <J_im> = 0
    <Sigma> = 0
    <d_lam> = 0
    <Phi_h> = 0
    <Phi_hx> = 0
    <Phi_hy> = 0
    <LamType> = 0
    <LamFill> = 1
    <NStrands> = 0
    <WireD> = 0
    <BHPoints> = 0
  <EndBlock>
  <BeginBlock>
    <BlockName> = "u7"
    <Mu_x> = 142.03015659052124
    <Mu_y> = 142.03015659052124
    <H_c> = 0
    <H_cAngle> = 0
    <J_re> = 0
    <J_im> = 0
    <Sigma> = 0
    <d_lam> = 0
    <Phi_h> = 0
    <Phi_hx> = 0
    <Phi_hy> = 0
    <LamType> = 0
    <LamFill> = 1
    <NStrands> = 0
    <WireD> = 0
    <BHPoints> = 0
  <EndBlock>
[CircuitProps]  = 4
  <BeginCircuit>
    <CircuitName> = "A"
    <TotalAmps_re> = 1
    <TotalAmps_im> = 0
    <CircuitType> = 1
  <EndCircuit>
  <BeginCircuit>
    <CircuitName> = "B"
    <TotalAmps_re> = 0
    <TotalAmps_im> = 0
    <CircuitType> = 1
  <EndCircuit>
  <BeginCircuit>
    <CircuitName> = "C"
    <TotalAmps_re> = 0
    <TotalAmps_im> = 0
    <CircuitType> = 1
  <EndCircuit>
  <BeginCircuit>
    <CircuitName> = "D"
    <TotalAmps_re> = 0
    <TotalAmps_im> = 0
    <CircuitType> = 1
  <EndCircuit>
[NumPoints] = 130
9.8891024406925432	1.4851440729736547	0	5
8.5301241808337132	5.2189061554655281	0	5
10.828795061478452	1.8271642162993236	0	5
9.4698168016196203	5.5609262987911956	0	5
9.1277966582939509	6.5006189195771036	0	5
11.17081520480412	0.88747159551341515	0	5
21.343800728510761	10.946880782810796	0	5
21.68582087183643	10.007188162024889	0	5
23.044799131695264	6.2734260795330172	0	5
23.38681927502093	5.3337334587471092	0	5
24.100491072113428	6.6457753560424342	0	5
22.733869317855259	10.400537766802218	0	5
17.677669529663689	17.677669529663685	0	5
23.334523779156068	23.334523779156065	0	5
25	0	0	5
33	0	0	5
9.8891024406925432	-1.4851440729736547	0	5
8.5301241808337132	-5.2189061554655281	0	5
10.828795061478452	-1.8271642162993236	0	5
9.4698168016196203	-5.5609262987911956	0	5
9.1277966582939509	-6.5006189195771036	0	5
11.17081520480412	-0.88747159551341515	0	5
21.343800728510761	-10.946880782810796	0	5
21.68582087183643	-10.007188162024889	0	5
23.044799131695264	-6.2734260795330172	0	5
23.38681927502093	-5.3337334587471092	0	5
24.100491072113428	-6.6457753560424342	0	5
22.733869317855259	-10.400537766802218	0	5
17.677669529663689	-17.677669529663685	0	5
23.334523779156068	-23.334523779156065	0	5
-1.485144072973654	9.8891024406925432	0	5
-5.2189061554655272	8.5301241808337132	0	5
-1.8271642162993229	10.828795061478452	0	5
-5.5609262987911947	9.4698168016196203	0	5
-6.5006189195771027	9.1277966582939509	0	5
-0.88747159551341448	11.17081520480412	0	5
-10.946880782810794	21.343800728510761	0	5
-10.007188162024887	21.68582087183643	0	5
-6.2734260795330155	23.044799131695264	0	5
-5.3337334587471075	23.38681927502093	0	5
-6.6457753560424324	24.100491072113428	0	5
-10.400537766802216	22.733869317855259	0	5
-17.677669529663685	17.677669529663689	0	5
-23.334523779156065	23.334523779156068	0	5
1.5308084989341915e-015	25	0	5
2.0206672185931327e-015	33	0	5
1.4851440729736554	9.8891024406925432	0	5
5.2189061554655289	8.5301241808337132	0	5
1.8271642162993242	10.828795061478452	0	5
5.5609262987911965	9.4698168016196203	0	5
6.5006189195771045	9.1277966582939509	0	5
0.88747159551341581	11.17081520480412	0	5
10.946880782810798	21.343800728510761	0	5
10.007188162024891	21.68582087183643	0	5
6.273426079533019	23.044799131695264	0	5
5.333733458747111	23.38681927502093	0	5
6.645775356042436	24.100491072113428	0	5
10.40053776680222	22.733869317855259	0	5
-9.8891024406925432	-1.4851440729736536	0	5
-8.5301241808337132	-5.2189061554655272	0	5
-10.828795061478452	-1.8271642162993222	0	5
-9.4698168016196203	-5.5609262987911947	0	5
-9.1277966582939509	-6.5006189195771027	0	5
-11.17081520480412	-0.88747159551341381	0	5
-21.343800728510761	-10.946880782810794	0	5
-21.68582087183643	-10.007188162024887	0	5
-23.044799131695264	-6.2734260795330146	0	5
-23.38681927502093	-5.3337334587471066	0	5
-24.100491072113428	-6.6457753560424315	0	5
-22.733869317855259	-10.400537766802215	0	5
-17.677669529663692	-17.677669529663682	0	5
-23.334523779156072	-23.334523779156061	0	5
-25	3.061616997868383e-015	0	5
-33	4.0413344371862654e-015	0	5
-9.8891024406925432	1.4851440729736558	0	5
-8.5301241808337132	5.2189061554655289	0	5
-10.828795061478452	1.8271642162993249	0	5
-9.4698168016196203	5.5609262987911965	0	5
-9.1277966582939509	6.5006189195771045	0	5
-11.17081520480412	0.88747159551341648	0	5
-21.343800728510761	10.946880782810798	0	5
-21.68582087183643	10.007188162024891	0	5
-23.044799131695264	6.2734260795330199	0	5
-23.38681927502093	5.3337334587471119	0	5
-24.100491072113428	6.6457753560424369	0	5
-22.733869317855259	10.400537766802222	0	5
1.4851440729736529	-9.8891024406925432	0	5
5.2189061554655263	-8.5301241808337149	0	5
1.8271642162993216	-10.828795061478452	0	5
5.5609262987911938	-9.469816801619622	0	5
6.5006189195771018	-9.1277966582939527	0	5
0.88747159551341315	-11.17081520480412	0	5
10.946880782810792	-21.343800728510764	0	5
10.007188162024885	-21.685820871836434	0	5
6.2734260795330128	-23.044799131695264	0	5
5.3337334587471048	-23.38681927502093	0	5
6.6457753560424297	-24.100491072113428	0	5
10.400537766802215	-22.733869317855262	0	5
-4.5924254968025744e-015	-25	0	5
-6.0620016557793977e-015	-33	0	5
-1.4851440729736565	-9.8891024406925432	0	5
-5.2189061554655298	-8.5301241808337114	0	5
-1.8271642162993256	-10.828795061478452	0	5
-5.5609262987911974	-9.4698168016196185	0	5
-6.5006189195771054	-9.1277966582939492	0	5
-0.88747159551341714	-11.17081520480412	0	5
-10.946880782810799	-21.343800728510757	0	5
-10.007188162024892	-21.685820871836427	0	5
-6.2734260795330217	-23.044799131695264	0	5
-5.3337334587471137	-23.38681927502093	0	5
-6.6457753560424386	-24.100491072113428	0	5
-10.400537766802222	-22.733869317855255	0	5
9.9000000000000004	0	0	5
-9.9000000000000004	1.2124003311558797e-015	0	5
0	70.003600000000006	0	0
0	-70.003600000000006	0	0
0	-71.00365142857143	0	0
0	71.00365142857143	0	0
0	-72.003702857142855	0	0
0	72.003702857142855	0	0
0	-73.003754285714294	0	0
0	73.003754285714294	0	0
0	-74.003805714285718	0	0
0	74.003805714285718	0	0
0	-75.003857142857143	0	0
0	75.003857142857143	0	0
0	-76.003908571428568	0	0
0	76.003908571428568	0	0
0	-77.003960000000006	0	0
0	77.003960000000006	0	0
[NumSegments] = 96
1	3	-1	0	0	5
3	4	-1	0	0	5
0	2	-1	0	0	5
2	5	-1	0	0	5
4	6	-1	0	0	5
3	7	-1	0	0	5
6	7	-1	0	0	5
7	11	-1	0	0	5
5	9	-1	0	0	5
2	8	-1	0	0	5
8	10	-1	0	0	5
8	9	-1	0	0	5
17	19	-1	0	0	5
19	20	-1	0	0	5
16	18	-1	0	0	5
18	21	-1	0	0	5
20	22	-1	0	0	5
19	23	-1	0	0	5
22	23	-1	0	0	5
23	27	-1	0	0	5
21	25	-1	0	0	5
18	24	-1	0	0	5
24	26	-1	0	0	5
24	25	-1	0	0	5
31	33	-1	0	0	5
33	34	-1	0	0	5
30	32	-1	0	0	5
32	35	-1	0	0	5
34	36	-1	0	0	5
33	37	-1	0	0	5
36	37	-1	0	0	5
37	41	-1	0	0	5
35	39	-1	0	0	5
32	38	-1	0	0	5
38	40	-1	0	0	5
38	39	-1	0	0	5
47	49	-1	0	0	5
49	50	-1	0	0	5
46	48	-1	0	0	5
48	51	-1	0	0	5
50	52	-1	0	0	5
49	53	-1	0	0	5
52	53	-1	0	0	5
53	57	-1	0	0	5
51	55	-1	0	0	5
48	54	-1	0	0	5
54	56	-1	0	0	5
54	55	-1	0	0	5
59	61	-1	0	0	5
61	62	-1	0	0	5
58	60	-1	0	0	5
60	63	-1	0	0	5
62	64	-1	0	0	5
61	65	-1	0	0	5
64	65	-1	0	0	5
65	69	-1	0	0	5
63	67	-1	0	0	5
60	66	-1	0	0	5
66	68	-1	0	0	5
66	67	-1	0	0	5
75	77	-1	0	0	5
77	78	-1	0	0	5
74	76	-1	0	0	5
76	79	-1	0	0	5
78	80	-1	0	0	5
77	81	-1	0	0	5
80	81	-1	0	0	5
81	85	-1	0	0	5
79	83	-1	0	0	5
76	82	-1	0	0	5
82	84	-1	0	0	5
82	83	-1	0	0	5
87	89	-1	0	0	5
89	90	-1	0	0	5
86	88	-1	0	0	5
88	91	-1	0	0	5
90	92	-1	0	0	5
89	93	-1	0	0	5
92	93	-1	0	0	5
93	97	-1	0	0	5
91	95	-1	0	0	5
88	94	-1	0	0	5
94	96	-1	0	0	5
94	95	-1	0	0	5
101	103	-1	0	0	5
103	104	-1	0	0	5
100	102	-1	0	0	5
102	105	-1	0	0	5
104	106	-1	0	0	5
103	107	-1	0	0	5
106	107	-1	0	0	5
107	111	-1	0	0	5
105	109	-1	0	0	5
102	108	-1	0	0	5
108	110	-1	0	0	5
108	109	-1	0	0	5
[NumArcSegments] = 50
0	1	22.918311805232932	10	0	0	5	10
11	12	20.416337638953415	10	0	0	5	10
14	10	15.416337638953415	10	0	0	5	10
15	13	45	10	0	0	5	10
17	16	22.918311805232932	10	0	0	5	10
28	27	20.416337638953415	10	0	0	5	10
26	14	15.416337638953415	10	0	0	5	10
29	15	45	10	0	0	5	10
30	31	22.918311805232932	10	0	0	5	10
41	42	20.416337638953415	10	0	0	5	10
44	40	15.416337638953415	10	0	0	5	10
45	43	45	10	0	0	5	10
47	46	22.918311805232932	10	0	0	5	10
12	57	20.416337638953415	10	0	0	5	10
56	44	15.416337638953415	10	0	0	5	10
13	45	45	10	0	0	5	10
58	59	22.918311805232932	10	0	0	5	10
69	70	20.416337638953415	10	0	0	5	10
72	68	15.416337638953415	10	0	0	5	10
73	71	45	10	0	0	5	10
75	74	22.918311805232932	10	0	0	5	10
42	85	20.416337638953415	10	0	0	5	10
84	72	15.416337638953415	10	0	0	5	10
43	73	45	10	0	0	5	10
86	87	22.918311805232932	10	0	0	5	10
97	28	20.416337638953415	10	0	0	5	10
98	96	15.416337638953415	10	0	0	5	10
99	29	45	10	0	0	5	10
101	100	22.918311805232932	10	0	0	5	10
70	111	20.416337638953415	10	0	0	5	10
110	98	15.416337638953415	10	0	0	5	10
71	99	45	10	0	0	5	10
112	113	180	10	0	0	5	10
113	112	180	10	0	0	0	10
114	115	180	1	0	0	0	1
115	114	180	1	0	0	0	1
116	117	180	1	0	0	0	1
117	116	180	1	0	0	0	1
118	119	180	1	0	0	0	1
119	118	180	1	0	0	0	1
120	121	180	1	0	0	0	1
121	120	180	1	0	0	0	1
122	123	180	1	0	0	0	1
123	122	180	1	0	0	0	1
124	125	180	1	0	0	0	1
125	124	180	1	0	0	0	1
126	127	180	1	0	0	0	1
127	126	180	1	0	0	0	1
128	129	180	1	1	0	0	1
129	128	180	1	1	0	0	1
[NumHoles] = 0
[NumBlockLabels] = 27
15.406808765065193	8.2539035408009962	3	-1	1	0	5	-40	0
17.116909481693536	3.5554404368714549	3	-1	1	0	0	40	0
17.116909481693536	-3.5554404368714549	3	-1	1	0	0	40	0
15.406808765065193	-8.2539035408009962	3	-1	1	0	5	-40	0
-15.406808765065186	-8.2539035408010051	3	-1	3	0	5	-40	0
-17.113182844431886	-3.554666358067808	3	-1	3	0	5	40	0
-17.113182844431886	3.5546663580678035	3	-1	3	0	5	40	0
-15.40680876506519	8.2539035408010015	3	-1	3	0	5	-40	0
8.253903540800998	-15.406808765065193	3	-1	2	0	5	-40	0
3.5546663580678146	-17.113182844431886	3	-1	2	0	5	40	0
-3.5546663580678084	-17.113182844431886	3	-1	2	0	5	40	0
-8.2539035408009944	-15.406808765065193	3	-1	2	0	5	-40	0
-8.2539035408010051	15.406808765065186	2	-1	0	0	0	1	0
-3.5546663580678088	17.113182844431886	3	-1	4	0	5	40	0
3.5546663580678026	17.113182844431886	3	-1	4	0	5	40	0
8.2539035408009997	15.406808765065191	3	-1	4	0	5	-40	0
69.148918315630127	13.75457504390458	4	-1	0	0	0	1	0
66.060783811580833	27.363272595753788	5	-1	0	0	0	1	0
60.284647085774694	40.280913377218567	6	-1	0	0	0	1	0
51.975021280844139	51.975021280844125	7	-1	0	0	0	1	0
41.392110987624598	61.947671832968474	8	-1	0	0	0	1	0
28.894085048663094	69.756491996844105	9	-1	0	0	0	1	0
14.925177175300705	75.033932640364611	10	-1	0	0	0	1	0
43.799999999999997	-4.7000000000000002	1	-1	0	0	0	1	0
29	2	2	-1	0	0	0	1	0
-0.29999999999999999	-0.90000000000000002	2	-1	0	0	0	1	0
19.600000000000001	0.59999999999999998	1	-1	0	0	0	1	0
