[Format]      =  4.0
[Frequency]   =  0
[Precision]   =  1e-008
[MinAngle]    =  30
[DoSmartMesh] =  1
[Depth]       =  50
[LengthUnits] =  millimeters
[ProblemType] =  planar
[Coordinates] =  cartesian
[ACSolver]    =  0
[PrevType]    =  0
[PrevSoln]    =  ""
[Comment]     =  "Add comments here."
[PointProps]   = 0
[BdryProps]   = 2
  <BeginBdry>
    <BdryName> = "A=0"
    <BdryType> = 0
    <A_0> = 0
    <A_1> = 0
    <A_2> = 0
    <Phi> = 0
    <c0> = 0
    <c0i> = 0
    <c1> = 0
    <c1i> = 0
    <Mu_ssd> = 0
    <Sigma_ssd> = 0
    <innerangle> = 0
    <outerangle> = 0
  <EndBdry>
  <BeginBdry>
    <BdryName> = "A=0"
    <BdryType> = 0
    <A_0> = 0
    <A_1> = 0
    <A_2> = 0
    <Phi> = 0
    <c0> = 0
    <c0i> = 0
    <c1> = 0
    <c1i> = 0
    <Mu_ssd> = 0
    <Sigma_ssd> = 0
    <innerangle> = 0
    <outerangle> = 0
  <EndBdry>
[BlockProps]  = 17
  <BeginBlock>
    <BlockName> = "Air"
    <Mu_x> = 1
    <Mu_y> = 1
    <H_c> = 0
    <H_cAngle> = 0
    <J_re> = 0
    <J_im> = 0
    <Sigma> = 0
    <d_lam> = 0
    <Phi_h> = 0
    <Phi_hx> = 0
    <Phi_hy> = 0
    <LamType> = 0
    <LamFill> = 1
    <NStrands> = 0
    <WireD> = 0
    <BHPoints> = 0
  <EndBlock>
  <BeginBlock>
    <BlockName> = "M-27 Steel"
    <Mu_x> = 12138
    <Mu_y> = 12138
    <H_c> = 0
    <H_cAngle> = 0
    <J_re> = 0
    <J_im> = 0
    <Sigma> = 2
    <d_lam> = 0.63500000000000001
    <Phi_h> = 0
    <Phi_hx> = 0
    <Phi_hy> = 0
    <LamType> = 0
    <LamFill> = 0.97999999999999998
    <NStrands> = 0
    <WireD> = 0
    <BHPoints> = 47
      0	0
      0.050000000000000003	17.059828
      0.10000000000000001	25.634971
      0.14999999999999999	31.338353999999999
      0.20000000000000001	35.778996999999997
      0.25	39.602124000000003
      0.29999999999999999	43.123142999999999
      0.34999999999999998	46.520439000000003
      0.40000000000000002	49.908177000000002
      0.45000000000000001	53.368284000000003
      0.5	56.966318000000001
      0.55000000000000004	60.760271000000003
      0.59999999999999998	64.806105000000002
      0.65000000000000002	69.161803000000006
      0.69999999999999996	73.890922000000003
      0.75	79.066315000000003
      0.80000000000000004	84.774675999999999
      0.84999999999999998	91.122721999999996
      0.90000000000000002	98.246298999999993
      0.94999999999999996	106.324591
      1	115.60341699999999
      1.05	126.435124
      1.1000000000000001	139.34975900000001
      1.1499999999999999	155.187082
      1.2	175.350538
      1.25	202.312017
      1.3	240.640455
      1.3500000000000001	299.11802699999998
      1.3999999999999999	394.99338599999999
      1.45	561.72617700000001
      1.5	859.32876299999998
      1.55	1375.4668879999999
      1.6000000000000001	2191.2469139999998
      1.6499999999999999	3328.145908
      1.7	4760.5061720000003
      1.75	6535.3394490000001
      1.8	8788.9706569999998
      1.8500000000000001	11670.804346999999
      1.8999999999999999	15385.186211
      1.95	20246.553030999999
      2	26995.131141000002
      2.0499999999999998	38724.496369
      2.1000000000000001	64917.284463000004
      2.1499999999999999	101489.30933800001
      2.2000000000000002	137202.82896099999
      2.25	176835.706764
      2.2999999999999998	216374.28360900001
  <EndBlock>
  <BeginBlock>
    <BlockName> = "18 AWG"
    <Mu_x> = 1
    <Mu_y> = 1
    <H_c> = 0
    <H_cAngle> = 0
    <J_re> = 0
    <J_im> = 0
    <Sigma> = 58
    <d_lam> = 0
    <Phi_h> = 0
    <Phi_hx> = 0
    <Phi_hy> = 0
    <LamType> = 3
    <LamFill> = 1
    <NStrands> = 1
    <WireD> = 1.0239652968433499
    <BHPoints> = 0
  <EndBlock>
  <BeginBlock>
    <BlockName> = "u1"
    <Mu_x> = 2.6498996896116669
    <Mu_y> = 2.6498996896116669
    <H_c> = 0
    <H_cAngle> = 0
    <J_re> = 0
    <J_im> = 0
    <Sigma> = 0
    <d_lam> = 0
    <Phi_h> = 0
    <Phi_hx> = 0
    <Phi_hy> = 0
    <LamType> = 0
    <LamFill> = 1
    <NStrands> = 0
    <WireD> = 0
    <BHPoints> = 0
  <EndBlock>
  <BeginBlock>
    <BlockName> = "u2"
    <Mu_x> = 0.12953316809300527
    <Mu_y> = 0.12953316809300527
    <H_c> = 0
    <H_cAngle> = 0
    <J_re> = 0
    <J_im> = 0
    <Sigma> = 0
    <d_lam> = 0
    <Phi_h> = 0
    <Phi_hx> = 0
    <Phi_hy> = 0
    <LamType> = 0
    <LamFill> = 1
    <NStrands> = 0
    <WireD> = 0
    <BHPoints> = 0
  <EndBlock>
  <BeginBlock>
    <BlockName> = "u3"
    <Mu_x> = 14.398967120915913
    <Mu_y> = 14.398967120915913
    <H_c> = 0
    <H_cAngle> = 0
    <J_re> = 0
    <J_im> = 0
    <Sigma> = 0
    <d_lam> = 0
    <Phi_h> = 0
    <Phi_hx> = 0
    <Phi_hy> = 0
    <LamType> = 0
    <LamFill> = 1
    <NStrands> = 0
    <WireD> = 0
    <BHPoints> = 0
  <EndBlock>
  <BeginBlock>
    <BlockName> = "u4"
    <Mu_x> = 0.042882574356338271
    <Mu_y> = 0.042882574356338271
    <H_c> = 0
    <H_cAngle> = 0
    <J_re> = 0
    <J_im> = 0
    <Sigma> = 0
    <d_lam> = 0
    <Phi_h> = 0
    <Phi_hx> = 0
    <Phi_hy> = 0
    <LamType> = 0
    <LamFill> = 1
    <NStrands> = 0
    <WireD> = 0
    <BHPoints> = 0
  <EndBlock>
  <BeginBlock>
    <BlockName> = "u5"
    <Mu_x> = 37.197476986533054
    <Mu_y> = 37.197476986533054
    <H_c> = 0
    <H_cAngle> = 0
    <J_re> = 0
    <J_im> = 0
    <Sigma> = 0
    <d_lam> = 0
    <Phi_h> = 0
    <Phi_hx> = 0
    <Phi_hy> = 0
    <LamType> = 0
    <LamFill> = 1
    <NStrands> = 0
    <WireD> = 0
    <BHPoints> = 0
  <EndBlock>
  <BeginBlock>
    <BlockName> = "u6"
    <Mu_x> = 0.015664246064106369
    <Mu_y> = 0.015664246064106369
    <H_c> = 0
    <H_cAngle> = 0
    <J_re> = 0
    <J_im> = 0
    <Sigma> = 0
    <d_lam> = 0
    <Phi_h> = 0
    <Phi_hx> = 0
    <Phi_hy> = 0
    <LamType> = 0
    <LamFill> = 1
    <NStrands> = 0
    <WireD> = 0
    <BHPoints> = 0
  <EndBlock>
  <BeginBlock>
    <BlockName> = "u7"
    <Mu_x> = 142.03015659052124
    <Mu_y> = 142.03015659052124
    <H_c> = 0
    <H_cAngle> = 0
    <J_re> = 0
    <J_im> = 0
    <Sigma> = 0
    <d_lam> = 0
    <Phi_h> = 0
    <Phi_hx> = 0
    <Phi_hy> = 0
    <LamType> = 0
    <LamFill> = 1
    <NStrands> = 0
    <WireD> = 0
    <BHPoints> = 0
  <EndBlock>
  <BeginBlock>
    <BlockName> = "u1"
    <Mu_x> = 2.6498996896116669
    <Mu_y> = 2.6498996896116669
    <H_c> = 0
    <H_cAngle> = 0
    <J_re> = 0
    <J_im> = 0
    <Sigma> = 0
    <d_lam> = 0
    <Phi_h> = 0
    <Phi_hx> = 0
    <Phi_hy> = 0
    <LamType> = 0
    <LamFill> = 1
    <NStrands> = 0
    <WireD> = 0
    <BHPoints> = 0
  <EndBlock>
  <BeginBlock>
    <BlockName> = "u2"
    <Mu_x> = 0.12953316809300527
    <Mu_y> = 0.12953316809300527
    <H_c> = 0
    <H_cAngle> = 0
    <J_re> = 0
    <J_im> = 0
    <Sigma> = 0
    <d_lam> = 0
    <Phi_h> = 0
    <Phi_hx> = 0
    <Phi_hy> = 0
    <LamType> = 0
    <LamFill> = 1
    <NStrands> = 0
    <WireD> = 0
    <BHPoints> = 0
  <EndBlock>
  <BeginBlock>
    <BlockName> = "u3"
    <Mu_x> = 14.398967120915913
    <Mu_y> = 14.398967120915913
    <H_c> = 0
    <H_cAngle> = 0
    <J_re> = 0
    <J_im> = 0
    <Sigma> = 0
    <d_lam> = 0
    <Phi_h> = 0
    <Phi_hx> = 0
    <Phi_hy> = 0
    <LamType> = 0
    <LamFill> = 1
    <NStrands> = 0
    <WireD> = 0
    <BHPoints> = 0
  <EndBlock>
  <BeginBlock>
    <BlockName> = "u4"
    <Mu_x> = 0.042882574356338271
    <Mu_y> = 0.042882574356338271
    <H_c> = 0
    <H_cAngle> = 0
    <J_re> = 0
    <J_im> = 0
    <Sigma> = 0
    <d_lam> = 0
    <Phi_h> = 0
    <Phi_hx> = 0
    <Phi_hy> = 0
    <LamType> = 0
    <LamFill> = 1
    <NStrands> = 0
    <WireD> = 0
    <BHPoints> = 0
  <EndBlock>
  <BeginBlock>
    <BlockName> = "u5"
    <Mu_x> = 37.197476986533054
    <Mu_y> = 37.197476986533054
    <H_c> = 0
    <H_cAngle> = 0
    <J_re> = 0
    <J_im> = 0
    <Sigma> = 0
    <d_lam> = 0
    <Phi_h> = 0
    <Phi_hx> = 0
    <Phi_hy> = 0
    <LamType> = 0
    <LamFill> = 1
    <NStrands> = 0
    <WireD> = 0
    <BHPoints> = 0
  <EndBlock>
  <BeginBlock>
    <BlockName> = "u6"
    <Mu_x> = 0.015664246064106369
    <Mu_y> = 0.015664246064106369
    <H_c> = 0
    <H_cAngle> = 0
    <J_re> = 0
    <J_im> = 0
    <Sigma> = 0
    <d_lam> = 0
    <Phi_h> = 0
    <Phi_hx> = 0
    <Phi_hy> = 0
    <LamType> = 0
    <LamFill> = 1
    <NStrands> = 0
    <WireD> = 0
    <BHPoints> = 0
  <EndBlock>
  <BeginBlock>
    <BlockName> = "u7"
    <Mu_x> = 142.03015659052124
    <Mu_y> = 142.03015659052124
    <H_c> = 0
    <H_cAngle> = 0
    <J_re> = 0
    <J_im> = 0
    <Sigma> = 0
    <d_lam> = 0
    <Phi_h> = 0
    <Phi_hx> = 0
    <Phi_hy> = 0
    <LamType> = 0
    <LamFill> = 1
    <NStrands> = 0
    <WireD> = 0
    <BHPoints> = 0
  <EndBlock>
[CircuitProps]  = 4
  <BeginCircuit>
    <CircuitName> = "A"
    <TotalAmps_re> = 10
    <TotalAmps_im> = 0
    <CircuitType> = 1
  <EndCircuit>
  <BeginCircuit>
    <CircuitName> = "B"
    <TotalAmps_re> = 0
    <TotalAmps_im> = 0
    <CircuitType> = 1
  <EndCircuit>
  <BeginCircuit>
    <CircuitName> = "C"
    <TotalAmps_re> = 0
    <TotalAmps_im> = 0
    <CircuitType> = 1
  <EndCircuit>
  <BeginCircuit>
    <CircuitName> = "D"
    <TotalAmps_re> = 0
    <TotalAmps_im> = 0
    <CircuitType> = 1
  <EndCircuit>
[NumPoints] = 130
9.8149091318023238	1.9150871349532244	0	5
8.2943599035157352	5.5860177041386505	0	5
10.73878866431361	2.297770567318314	0	5
9.2182394360270212	5.968701136503741	0	5
8.8355560036619334	6.8925806690150289	0	5
11.1214720966787	1.3738910348070272	0	5
20.845989926308661	11.867465289761196	0	5
21.228673358673745	10.94358575724991	0	5
22.749222586960339	7.2726551880644816	0	5
23.131906019325427	6.3487756555531947	0	5
23.787668095246143	7.690698706256069	0	5
22.258566626019707	11.382276211507158	0	5
17.677669529663689	17.677669529663685	0	5
23.334523779156068	23.334523779156065	0	5
25	0	0	5
33	0	0	5
9.8149091318023238	-1.9150871349532244	0	5
8.2943599035157352	-5.5860177041386505	0	5
10.73878866431361	-2.297770567318314	0	5
9.2182394360270212	-5.968701136503741	0	5
8.8355560036619334	-6.8925806690150289	0	5
11.1214720966787	-1.3738910348070272	0	5
20.845989926308661	-11.867465289761196	0	5
21.228673358673745	-10.94358575724991	0	5
22.749222586960339	-7.2726551880644816	0	5
23.131906019325427	-6.3487756555531947	0	5
23.787668095246143	-7.690698706256069	0	5
22.258566626019707	-11.382276211507158	0	5
17.677669529663689	-17.677669529663685	0	5
23.334523779156068	-23.334523779156065	0	5
-1.9150871349532237	9.8149091318023238	0	5
-5.5860177041386496	8.2943599035157352	0	5
-2.2977705673183135	10.73878866431361	0	5
-5.9687011365037401	9.2182394360270212	0	5
-6.892580669015028	8.8355560036619334	0	5
-1.3738910348070266	11.1214720966787	0	5
-11.867465289761194	20.845989926308661	0	5
-10.943585757249908	21.228673358673745	0	5
-7.2726551880644799	22.749222586960339	0	5
-6.3487756555531929	23.131906019325427	0	5
-7.6906987062560672	23.787668095246143	0	5
-11.382276211507156	22.258566626019707	0	5
-17.677669529663685	17.677669529663689	0	5
-23.334523779156065	23.334523779156068	0	5
1.5308084989341915e-015	25	0	5
2.0206672185931327e-015	33	0	5
1.915087134953225	9.8149091318023238	0	5
5.5860177041386514	8.2943599035157352	0	5
2.2977705673183144	10.73878866431361	0	5
5.9687011365037419	9.2182394360270212	0	5
6.8925806690150297	8.8355560036619334	0	5
1.3738910348070279	11.1214720966787	0	5
11.867465289761197	20.845989926308661	0	5
10.943585757249911	21.228673358673745	0	5
7.2726551880644834	22.749222586960339	0	5
6.3487756555531965	23.131906019325427	0	5
7.6906987062560708	23.787668095246143	0	5
11.382276211507159	22.258566626019707	0	5
-9.8149091318023238	-1.9150871349532232	0	5
-8.2943599035157352	-5.5860177041386496	0	5
-10.73878866431361	-2.2977705673183126	0	5
-9.2182394360270212	-5.9687011365037401	0	5
-8.8355560036619334	-6.892580669015028	0	5
-11.1214720966787	-1.3738910348070259	0	5
-20.845989926308661	-11.867465289761194	0	5
-21.228673358673745	-10.943585757249908	0	5
-22.749222586960339	-7.272655188064479	0	5
-23.131906019325427	-6.348775655553192	0	5
-23.787668095246143	-7.6906987062560663	0	5
-22.258566626019707	-11.382276211507154	0	5
-17.677669529663692	-17.677669529663682	0	5
-23.334523779156072	-23.334523779156061	0	5
-25	3.061616997868383e-015	0	5
-33	4.0413344371862654e-015	0	5
-9.8149091318023238	1.9150871349532255	0	5
-8.2943599035157352	5.5860177041386514	0	5
-10.73878866431361	2.2977705673183153	0	5
-9.2182394360270212	5.9687011365037419	0	5
-8.8355560036619334	6.8925806690150297	0	5
-11.1214720966787	1.3738910348070286	0	5
-20.845989926308661	11.867465289761197	0	5
-21.228673358673745	10.943585757249911	0	5
-22.749222586960339	7.2726551880644843	0	5
-23.131906019325427	6.3487756555531973	0	5
-23.787668095246143	7.6906987062560717	0	5
-22.258566626019707	11.382276211507161	0	5
1.9150871349532226	-9.8149091318023238	0	5
5.5860177041386487	-8.2943599035157369	0	5
2.2977705673183122	-10.73878866431361	0	5
5.9687011365037392	-9.218239436027023	0	5
6.8925806690150271	-8.8355560036619352	0	5
1.3738910348070252	-11.1214720966787	0	5
11.867465289761192	-20.845989926308665	0	5
10.943585757249906	-21.228673358673749	0	5
7.2726551880644772	-22.749222586960339	0	5
6.3487756555531902	-23.131906019325427	0	5
7.6906987062560646	-23.787668095246143	0	5
11.382276211507154	-22.258566626019711	0	5
-4.5924254968025744e-015	-25	0	5
-6.0620016557793977e-015	-33	0	5
-1.9150871349532261	-9.8149091318023238	0	5
-5.5860177041386523	-8.2943599035157334	0	5
-2.2977705673183157	-10.73878866431361	0	5
-5.9687011365037428	-9.2182394360270195	0	5
-6.8925806690150306	-8.8355560036619316	0	5
-1.3738910348070292	-11.1214720966787	0	5
-11.867465289761199	-20.845989926308658	0	5
-10.943585757249913	-21.228673358673742	0	5
-7.2726551880644861	-22.749222586960339	0	5
-6.3487756555531991	-23.131906019325427	0	5
-7.6906987062560734	-23.787668095246143	0	5
-11.382276211507161	-22.258566626019704	0	5
9.9000000000000004	0	0	5
-9.9000000000000004	1.2124003311558797e-015	0	5
-1.06581e-014	70.003599999999992	0	0
-1.06581e-014	-70.00360000000002	0	0
-1.06581e-014	-71.003651428571445	0	0
-1.06581e-014	71.003651428571416	0	0
-1.06581e-014	-72.003702857142869	0	0
-1.06581e-014	72.003702857142841	0	0
-1.06581e-014	-73.003754285714308	0	0
-1.06581e-014	73.00375428571428	0	0
-1.06581e-014	-74.003805714285733	0	0
-1.06581e-014	74.003805714285704	0	0
-1.06581e-014	-75.003857142857157	0	0
-1.06581e-014	75.003857142857129	0	0
-1.06581e-014	-76.003908571428582	0	0
-1.06581e-014	76.003908571428553	0	0
-1.06581e-014	-77.003960000000021	0	0
-1.06581e-014	77.003959999999992	0	0
[NumSegments] = 96
1	3	-1	0	0	5
3	4	-1	0	0	5
0	2	-1	0	0	5
2	5	-1	0	0	5
4	6	-1	0	0	5
3	7	-1	0	0	5
6	7	-1	0	0	5
7	11	-1	0	0	5
5	9	-1	0	0	5
2	8	-1	0	0	5
8	10	-1	0	0	5
8	9	-1	0	0	5
17	19	-1	0	0	5
19	20	-1	0	0	5
16	18	-1	0	0	5
18	21	-1	0	0	5
20	22	-1	0	0	5
19	23	-1	0	0	5
22	23	-1	0	0	5
23	27	-1	0	0	5
21	25	-1	0	0	5
18	24	-1	0	0	5
24	26	-1	0	0	5
24	25	-1	0	0	5
31	33	-1	0	0	5
33	34	-1	0	0	5
30	32	-1	0	0	5
32	35	-1	0	0	5
34	36	-1	0	0	5
33	37	-1	0	0	5
36	37	-1	0	0	5
37	41	-1	0	0	5
35	39	-1	0	0	5
32	38	-1	0	0	5
38	40	-1	0	0	5
38	39	-1	0	0	5
47	49	-1	0	0	5
49	50	-1	0	0	5
46	48	-1	0	0	5
48	51	-1	0	0	5
50	52	-1	0	0	5
49	53	-1	0	0	5
52	53	-1	0	0	5
53	57	-1	0	0	5
51	55	-1	0	0	5
48	54	-1	0	0	5
54	56	-1	0	0	5
54	55	-1	0	0	5
59	61	-1	0	0	5
61	62	-1	0	0	5
58	60	-1	0	0	5
60	63	-1	0	0	5
62	64	-1	0	0	5
61	65	-1	0	0	5
64	65	-1	0	0	5
65	69	-1	0	0	5
63	67	-1	0	0	5
60	66	-1	0	0	5
66	68	-1	0	0	5
66	67	-1	0	0	5
75	77	-1	0	0	5
77	78	-1	0	0	5
74	76	-1	0	0	5
76	79	-1	0	0	5
78	80	-1	0	0	5
77	81	-1	0	0	5
80	81	-1	0	0	5
81	85	-1	0	0	5
79	83	-1	0	0	5
76	82	-1	0	0	5
82	84	-1	0	0	5
82	83	-1	0	0	5
87	89	-1	0	0	5
89	90	-1	0	0	5
86	88	-1	0	0	5
88	91	-1	0	0	5
90	92	-1	0	0	5
89	93	-1	0	0	5
92	93	-1	0	0	5
93	97	-1	0	0	5
91	95	-1	0	0	5
88	94	-1	0	0	5
94	96	-1	0	0	5
94	95	-1	0	0	5
101	103	-1	0	0	5
103	104	-1	0	0	5
100	102	-1	0	0	5
102	105	-1	0	0	5
104	106	-1	0	0	5
103	107	-1	0	0	5
106	107	-1	0	0	5
107	111	-1	0	0	5
105	109	-1	0	0	5
102	108	-1	0	0	5
108	110	-1	0	0	5
108	109	-1	0	0	5
[NumArcSegments] = 50
0	1	22.918311805232932	10	0	0	5	10
11	12	17.916337638953415	10	0	0	5	10
14	10	17.916337638953415	10	0	0	5	10
15	13	45	10	0	0	5	10
17	16	22.918311805232932	10	0	0	5	10
28	27	17.916337638953415	10	0	0	5	10
26	14	17.916337638953415	10	0	0	5	10
29	15	45	10	0	0	5	10
30	31	22.918311805232932	10	0	0	5	10
41	42	17.916337638953415	10	0	0	5	10
44	40	17.916337638953415	10	0	0	5	10
45	43	45	10	0	0	5	10
47	46	22.918311805232932	10	0	0	5	10
12	57	17.916337638953415	10	0	0	5	10
56	44	17.916337638953415	10	0	0	5	10
13	45	45	10	0	0	5	10
58	59	22.918311805232932	10	0	0	5	10
69	70	17.916337638953415	10	0	0	5	10
72	68	17.916337638953415	10	0	0	5	10
73	71	45	10	0	0	5	10
75	74	22.918311805232932	10	0	0	5	10
42	85	17.916337638953415	10	0	0	5	10
84	72	17.916337638953415	10	0	0	5	10
43	73	45	10	0	0	5	10
86	87	22.918311805232932	10	0	0	5	10
97	28	17.916337638953415	10	0	0	5	10
98	96	17.916337638953415	10	0	0	5	10
99	29	45	10	0	0	5	10
101	100	22.918311805232932	10	0	0	5	10
70	111	17.916337638953415	10	0	0	5	10
110	98	17.916337638953415	10	0	0	5	10
71	99	45	10	0	0	5	10
112	113	180	10	0	0	5	10
113	112	180	10	0	0	0	10
114	115	180	1	0	0	0	1
115	114	180	1	0	0	0	1
116	117	180	1	0	0	0	1
117	116	180	1	0	0	0	1
118	119	180	1	0	0	0	1
119	118	180	1	0	0	0	1
120	121	180	1	0	0	0	1
121	120	180	1	0	0	0	1
122	123	180	1	0	0	0	1
123	122	180	1	0	0	0	1
124	125	180	1	0	0	0	1
125	124	180	1	0	0	0	1
126	127	180	1	0	0	0	1
127	126	180	1	0	0	0	1
128	129	180	1	2	0	0	1
129	128	180	1	2	0	0	1
[NumHoles] = 0
[NumBlockLabels] = 27
15.032114681167846	8.9180832131324674	3	-1	1	0	5	-40	0
16.945531842993294	4.2986855505760335	3	-1	1	0	5	40	0
16.945531842993294	-4.2986855505760335	3	-1	1	0	5	40	0
15.032114681167846	-8.9180832131324674	3	-1	1	0	5	-40	0
-15.032114681167844	-8.9180832131324692	3	-1	3	0	5	-40	0
-16.941842517507748	-4.2977496548895999	3	-1	3	0	5	40	0
-16.941842517507748	4.2977496548896026	3	-1	3	0	5	40	0
-15.032114681167846	8.9180832131324657	3	-1	3	0	5	-40	0
8.9180832131324674	-15.032114681167844	3	-1	2	0	5	-40	0
4.2977496548896061	-16.941842517507748	3	-1	2	0	5	40	0
-4.2977496548896044	-16.941842517507748	3	-1	2	0	5	40	0
-8.9180832131324657	-15.032114681167846	3	-1	2	0	5	-40	0
-8.9180832131324781	15.03211468116784	3	-1	4	0	5	-40	0
-4.2977496548896008	16.941842517507748	3	-1	4	0	5	40	0
4.2977496548895946	16.941842517507752	3	-1	4	0	5	40	0
8.918083213132471	15.032114681167842	3	-1	4	0	5	-40	0
28.699999999999999	0.29999999999999999	2	-1	0	0	0	1	0
1.7	1.7	2	-1	0	0	0	1	0
19.600000000000001	0.40000000000000002	1	-1	0	0	0	1	0
69.148918315630112	13.754575043904563	11	-1	0	0	0	1	0
66.060783811580819	27.36327259575377	12	-1	0	0	0	1	0
60.284647085774687	40.280913377218546	13	-1	0	0	0	1	0
51.975021280844132	51.975021280844103	14	-1	0	0	0	1	0
41.392110987624591	61.947671832968453	15	-1	0	0	0	1	0
28.894085048663083	69.75649199684409	16	-1	0	0	0	1	0
14.925177175300695	75.033932640364597	17	-1	0	0	0	1	0
46.399999999999999	-6.5	1	-1	0	0	0	1	0
